Cn1ncc(NC(=O)CC#N)c1NC(=O)[C@@H]1CCCO1
     RDKit          3D

 20 21  0  0  0  0  0  0  0  0999 V2000
   34.0165    8.4122    4.7100 C   0  0  0  0  0  0  0  0  0  0  0  0
   32.9826    9.2599    5.2307 N   0  0  0  0  0  0  0  0  0  0  0  0
   32.0063    8.6700    5.9359 N   0  0  0  0  0  0  0  0  0  0  0  0
   31.4150    9.6911    6.5424 C   0  0  0  0  0  0  0  0  0  0  0  0
   31.9678   10.9285    6.1735 C   0  0  0  0  0  0  0  0  0  0  0  0
   31.6080   12.1498    6.6822 N   0  0  0  0  0  0  0  0  0  0  0  0
   31.2613   13.2127    5.8722 C   0  0  0  0  0  0  0  0  0  0  0  0
   30.9027   13.0868    4.7071 O   0  0  0  0  0  0  0  0  0  0  0  0
   31.3277   14.5314    6.6030 C   0  0  0  0  0  0  0  0  0  0  0  0
   30.4400   15.5290    6.0076 C   0  0  0  0  0  0  0  0  0  0  0  0
   29.7544   16.3589    5.5686 N   0  0  0  0  0  0  0  0  0  0  0  0
   32.9339   10.6372    5.2317 C   0  0  0  0  0  0  0  0  0  0  0  0
   33.7593   11.4083    4.4303 N   0  0  0  0  0  0  0  0  0  0  0  0
   34.0671   12.7410    4.6366 C   0  0  0  0  0  0  0  0  0  0  0  0
   33.9635   13.3700    5.6863 O   0  0  0  0  0  0  0  0  0  0  0  0
   34.5940   13.4124    3.3624 C   0  0  2  0  0  0  0  0  0  0  0  0
   33.5255   14.2709    2.7054 C   0  0  0  0  0  0  0  0  0  0  0  0
   33.9541   14.2580    1.2621 C   0  0  0  0  0  0  0  0  0  0  0  0
   34.4550   12.8416    1.1044 C   0  0  0  0  0  0  0  0  0  0  0  0
   35.0155   12.4522    2.3689 O   0  0  0  0  0  0  0  0  0  0  0  0
  1  2  1  0
  2  3  1  0
  3  4  2  0
  4  5  1  0
  5  6  1  0
  6  7  1  0
  7  8  2  0
  7  9  1  0
  9 10  1  0
 10 11  3  0
  5 12  2  0
 12 13  1  0
 13 14  1  0
 14 15  2  0
 16 14  1  1
 16 17  1  0
 17 18  1  0
 18 19  1  0
 19 20  1  0
 12  2  1  0
 20 16  1  0
M  END
>  <original ID>  (1) 
None

>  <RMSD>  (1) 
1.700294

>  <submitter_name>  (1) 
None

>  <original SMILES>  (1) 
Cn1ncc(NC(=O)CC#N)c1NC(=O)[C@@H]1CCCO1

>  <ref_pdb>  (1) 
Ax0310a

>  <method>  (1) 
None

>  <ddG>  (1) 
9.69041

>  <submitter_email>  (1) 
None

>  <ref_url>  (1) 
None

>  <ref_mols>  (1) 
Ax0310a,Ax0416a

>  <tags>  (1) 
['base']

>  <generation_date>  (1) 
None

$$$$
Cn1ncc(NC(=O)CC#N)c1NC(=O)[C@H]1CCCO1
     RDKit          3D

 20 21  0  0  0  0  0  0  0  0999 V2000
   33.9896    8.3210    4.8411 C   0  0  0  0  0  0  0  0  0  0  0  0
   32.9933    9.2094    5.3656 N   0  0  0  0  0  0  0  0  0  0  0  0
   32.0277    8.6641    6.1126 N   0  0  0  0  0  0  0  0  0  0  0  0
   31.3975    9.7158    6.6133 C   0  0  0  0  0  0  0  0  0  0  0  0
   31.9704   10.9310    6.2065 C   0  0  0  0  0  0  0  0  0  0  0  0
   31.6247   12.1705    6.6825 N   0  0  0  0  0  0  0  0  0  0  0  0
   31.2588   13.2186    5.8642 C   0  0  0  0  0  0  0  0  0  0  0  0
   30.8936   13.0837    4.7022 O   0  0  0  0  0  0  0  0  0  0  0  0
   31.3313   14.5422    6.5857 C   0  0  0  0  0  0  0  0  0  0  0  0
   30.4373   15.5369    5.9961 C   0  0  0  0  0  0  0  0  0  0  0  0
   29.7458   16.3645    5.5621 N   0  0  0  0  0  0  0  0  0  0  0  0
   32.9491   10.5853    5.2966 C   0  0  0  0  0  0  0  0  0  0  0  0
   33.7850   11.2998    4.4538 N   0  0  0  0  0  0  0  0  0  0  0  0
   33.8239   12.6830    4.4059 C   0  0  0  0  0  0  0  0  0  0  0  0
   33.9189   13.4346    5.3718 O   0  0  0  0  0  0  0  0  0  0  0  0
   33.6903   13.1577    2.9571 C   0  0  1  0  0  0  0  0  0  0  0  0
   33.8369   14.6497    2.7547 C   0  0  0  0  0  0  0  0  0  0  0  0
   34.2687   14.7099    1.3117 C   0  0  0  0  0  0  0  0  0  0  0  0
   35.1800   13.5060    1.2083 C   0  0  0  0  0  0  0  0  0  0  0  0
   34.6719   12.5175    2.1157 O   0  0  0  0  0  0  0  0  0  0  0  0
  1  2  1  0
  2  3  1  0
  3  4  2  0
  4  5  1  0
  5  6  1  0
  6  7  1  0
  7  8  2  0
  7  9  1  0
  9 10  1  0
 10 11  3  0
  5 12  2  0
 12 13  1  0
 13 14  1  0
 14 15  2  0
 16 14  1  1
 16 17  1  0
 17 18  1  0
 18 19  1  0
 19 20  1  0
 12  2  1  0
 20 16  1  0
M  END
>  <original ID>  (2) 
None

>  <RMSD>  (2) 
1.609087

>  <submitter_name>  (2) 
None

>  <original SMILES>  (2) 
Cn1ncc(NC(=O)CC#N)c1NC(=O)[C@H]1CCCO1

>  <ref_pdb>  (2) 
Ax0310a

>  <method>  (2) 
None

>  <ddG>  (2) 
-52.723899

>  <submitter_email>  (2) 
None

>  <ref_url>  (2) 
None

>  <ref_mols>  (2) 
Ax0310a,Ax0416a

>  <tags>  (2) 
['base']

>  <generation_date>  (2) 
None

$$$$
N#CCC(=O)Nc1cccc(NC(=O)[C@@H]2CCCO2)c1
     RDKit          3D

 20 21  0  0  0  0  0  0  0  0999 V2000
   30.2819   15.8102    5.7017 N   0  0  0  0  0  0  0  0  0  0  0  0
   30.8251   14.9194    6.2164 C   0  0  0  0  0  0  0  0  0  0  0  0
   31.5166   13.7858    6.8594 C   0  0  0  0  0  0  0  0  0  0  0  0
   31.1474   12.4778    6.1384 C   0  0  0  0  0  0  0  0  0  0  0  0
   30.5808   12.4292    5.0458 O   0  0  0  0  0  0  0  0  0  0  0  0
   31.3019   11.2859    6.8621 N   0  0  0  0  0  0  0  0  0  0  0  0
   32.4182   10.5153    6.4663 C   0  0  0  0  0  0  0  0  0  0  0  0
   32.2865    9.1667    6.1582 C   0  0  0  0  0  0  0  0  0  0  0  0
   33.2412    8.5934    5.3251 C   0  0  0  0  0  0  0  0  0  0  0  0
   34.1953    9.4137    4.7133 C   0  0  0  0  0  0  0  0  0  0  0  0
   34.2770   10.7595    5.0673 C   0  0  0  0  0  0  0  0  0  0  0  0
   34.8833   11.6850    4.2028 N   0  0  0  0  0  0  0  0  0  0  0  0
   34.6213   13.0572    4.2003 C   0  0  0  0  0  0  0  0  0  0  0  0
   34.2005   13.7390    5.1315 O   0  0  0  0  0  0  0  0  0  0  0  0
   34.8974   13.6883    2.8360 C   0  0  2  0  0  0  0  0  0  0  0  0
   33.6928   14.4905    2.3619 C   0  0  0  0  0  0  0  0  0  0  0  0
   33.7669   14.3303    0.8673 C   0  0  0  0  0  0  0  0  0  0  0  0
   34.2630   12.9108    0.7358 C   0  0  0  0  0  0  0  0  0  0  0  0
   35.1642   12.6896    1.8293 O   0  0  0  0  0  0  0  0  0  0  0  0
   33.5597   11.2080    6.1436 C   0  0  0  0  0  0  0  0  0  0  0  0
  1  2  3  0
  2  3  1  0
  3  4  1  0
  4  5  2  0
  4  6  1  0
  6  7  1  0
  7  8  2  0
  8  9  1  0
  9 10  2  0
 10 11  1  0
 11 12  1  0
 12 13  1  0
 13 14  2  0
 15 13  1  1
 15 16  1  0
 16 17  1  0
 17 18  1  0
 18 19  1  0
 11 20  2  0
 20  7  1  0
 19 15  1  0
M  END
>  <original ID>  (3) 
None

>  <RMSD>  (3) 
1.620006

>  <submitter_name>  (3) 
None

>  <original SMILES>  (3) 
N#CCC(=O)Nc1cccc(NC(=O)[C@@H]2CCCO2)c1

>  <ref_pdb>  (3) 
Ax0310a

>  <method>  (3) 
None

>  <ddG>  (3) 
5.74672

>  <submitter_email>  (3) 
None

>  <ref_url>  (3) 
None

>  <ref_mols>  (3) 
Ax0310a,Ax0416a

>  <tags>  (3) 
['base']

>  <generation_date>  (3) 
None

$$$$
N#CCC(=O)Nc1cccc(NC(=O)[C@H]2CCCO2)c1
     RDKit          3D

 20 21  0  0  0  0  0  0  0  0999 V2000
   30.2691   15.8126    5.6973 N   0  0  0  0  0  0  0  0  0  0  0  0
   30.8199   14.9270    6.2126 C   0  0  0  0  0  0  0  0  0  0  0  0
   31.5236   13.7981    6.8502 C   0  0  0  0  0  0  0  0  0  0  0  0
   31.1575   12.4896    6.1311 C   0  0  0  0  0  0  0  0  0  0  0  0
   30.6193   12.4396    5.0245 O   0  0  0  0  0  0  0  0  0  0  0  0
   31.2974   11.3003    6.8593 N   0  0  0  0  0  0  0  0  0  0  0  0
   32.4191   10.5228    6.4942 C   0  0  0  0  0  0  0  0  0  0  0  0
   32.2923    9.1658    6.2189 C   0  0  0  0  0  0  0  0  0  0  0  0
   33.2673    8.5635    5.4303 C   0  0  0  0  0  0  0  0  0  0  0  0
   34.2383    9.3605    4.8190 C   0  0  0  0  0  0  0  0  0  0  0  0
   34.3058   10.7162    5.1324 C   0  0  0  0  0  0  0  0  0  0  0  0
   34.8750   11.6244    4.2190 N   0  0  0  0  0  0  0  0  0  0  0  0
   34.3847   12.9348    4.1065 C   0  0  0  0  0  0  0  0  0  0  0  0
   34.2077   13.7291    5.0259 O   0  0  0  0  0  0  0  0  0  0  0  0
   33.9316   13.2089    2.6747 C   0  0  1  0  0  0  0  0  0  0  0  0
   33.7640   14.6770    2.3456 C   0  0  0  0  0  0  0  0  0  0  0  0
   34.0198   14.6831    0.8611 C   0  0  0  0  0  0  0  0  0  0  0  0
   35.1158   13.6488    0.7292 C   0  0  0  0  0  0  0  0  0  0  0  0
   34.8677   12.6536    1.7309 O   0  0  0  0  0  0  0  0  0  0  0  0
   33.5696   11.2029    6.1799 C   0  0  0  0  0  0  0  0  0  0  0  0
  1  2  3  0
  2  3  1  0
  3  4  1  0
  4  5  2  0
  4  6  1  0
  6  7  1  0
  7  8  2  0
  8  9  1  0
  9 10  2  0
 10 11  1  0
 11 12  1  0
 12 13  1  0
 13 14  2  0
 15 13  1  1
 15 16  1  0
 16 17  1  0
 17 18  1  0
 18 19  1  0
 11 20  2  0
 20  7  1  0
 19 15  1  0
M  END
>  <original ID>  (4) 
None

>  <RMSD>  (4) 
1.618553

>  <submitter_name>  (4) 
None

>  <original SMILES>  (4) 
N#CCC(=O)Nc1cccc(NC(=O)[C@H]2CCCO2)c1

>  <ref_pdb>  (4) 
Ax0310a

>  <method>  (4) 
None

>  <ddG>  (4) 
8.411452

>  <submitter_email>  (4) 
None

>  <ref_url>  (4) 
None

>  <ref_mols>  (4) 
Ax0310a,Ax0416a

>  <tags>  (4) 
['base']

>  <generation_date>  (4) 
None

$$$$
Cc1ccc(NC(=O)CC#N)cc1NC(=O)[C@@H]1CCCO1
     RDKit          3D

 21 22  0  0  0  0  0  0  0  0999 V2000
   35.0617    8.7754    3.7775 C   0  0  0  0  0  0  0  0  0  0  0  0
   34.1940    9.3982    4.8229 C   0  0  0  0  0  0  0  0  0  0  0  0
   33.1933    8.6142    5.4205 C   0  0  0  0  0  0  0  0  0  0  0  0
   32.2267    9.2189    6.2091 C   0  0  0  0  0  0  0  0  0  0  0  0
   32.3795   10.5675    6.4950 C   0  0  0  0  0  0  0  0  0  0  0  0
   31.2639   11.3554    6.8417 N   0  0  0  0  0  0  0  0  0  0  0  0
   31.1438   12.5458    6.1106 C   0  0  0  0  0  0  0  0  0  0  0  0
   30.5983   12.5076    5.0074 O   0  0  0  0  0  0  0  0  0  0  0  0
   31.5047   13.8465    6.8426 C   0  0  0  0  0  0  0  0  0  0  0  0
   30.8042   14.9790    6.2084 C   0  0  0  0  0  0  0  0  0  0  0  0
   30.2550   15.8710    5.7017 N   0  0  0  0  0  0  0  0  0  0  0  0
   33.5405   11.2360    6.1968 C   0  0  0  0  0  0  0  0  0  0  0  0
   34.2735   10.7610    5.1429 C   0  0  0  0  0  0  0  0  0  0  0  0
   34.8833   11.6840    4.2702 N   0  0  0  0  0  0  0  0  0  0  0  0
   34.6289   13.0563    4.2509 C   0  0  0  0  0  0  0  0  0  0  0  0
   34.2260   13.7564    5.1764 O   0  0  0  0  0  0  0  0  0  0  0  0
   34.8923   13.6676    2.8743 C   0  0  2  0  0  0  0  0  0  0  0  0
   33.6752   14.4471    2.3928 C   0  0  0  0  0  0  0  0  0  0  0  0
   33.7383   14.2571    0.9012 C   0  0  0  0  0  0  0  0  0  0  0  0
   34.2513   12.8414    0.7957 C   0  0  0  0  0  0  0  0  0  0  0  0
   35.1716   12.6600    1.8802 O   0  0  0  0  0  0  0  0  0  0  0  0
  1  2  1  0
  2  3  2  0
  3  4  1  0
  4  5  2  0
  5  6  1  0
  6  7  1  0
  7  8  2  0
  7  9  1  0
  9 10  1  0
 10 11  3  0
  5 12  1  0
 12 13  2  0
 13 14  1  0
 14 15  1  0
 15 16  2  0
 17 15  1  1
 17 18  1  0
 18 19  1  0
 19 20  1  0
 20 21  1  0
 13  2  1  0
 21 17  1  0
M  END
>  <original ID>  (5) 
None

>  <RMSD>  (5) 
1.654951

>  <submitter_name>  (5) 
None

>  <original SMILES>  (5) 
Cc1ccc(NC(=O)CC#N)cc1NC(=O)[C@@H]1CCCO1

>  <ref_pdb>  (5) 
Ax0310a

>  <method>  (5) 
None

>  <ddG>  (5) 
0.481056

>  <submitter_email>  (5) 
None

>  <ref_url>  (5) 
None

>  <ref_mols>  (5) 
Ax0310a,Ax0416a

>  <tags>  (5) 
['base']

>  <generation_date>  (5) 
None

$$$$
Cc1ccc(NC(=O)CC#N)cc1NC(=O)[C@@H]1CCCO1
     RDKit          3D

 21 22  0  0  0  0  0  0  0  0999 V2000
   36.2534   10.3863    6.9013 C   0  0  0  0  0  0  0  0  0  0  0  0
   34.8264   10.8137    6.8539 C   0  0  0  0  0  0  0  0  0  0  0  0
   34.4374   12.0325    7.3988 C   0  0  0  0  0  0  0  0  0  0  0  0
   33.1730   12.5384    7.1110 C   0  0  0  0  0  0  0  0  0  0  0  0
   32.2424   11.7443    6.4456 C   0  0  0  0  0  0  0  0  0  0  0  0
   31.0946   12.2005    5.8092 N   0  0  0  0  0  0  0  0  0  0  0  0
   30.6361   13.4448    5.4964 C   0  0  0  0  0  0  0  0  0  0  0  0
   29.7456   13.4827    4.6466 O   0  0  0  0  0  0  0  0  0  0  0  0
   31.1169   14.6726    6.2130 C   0  0  0  0  0  0  0  0  0  0  0  0
   30.2733   15.8380    5.9280 C   0  0  0  0  0  0  0  0  0  0  0  0
   29.6242   16.7832    5.7389 N   0  0  0  0  0  0  0  0  0  0  0  0
   32.5500   10.4231    6.1559 C   0  0  0  0  0  0  0  0  0  0  0  0
   33.9033   10.1488    6.0506 C   0  0  0  0  0  0  0  0  0  0  0  0
   34.3717    9.8952    4.7222 N   0  0  0  0  0  0  0  0  0  0  0  0
   33.8204   10.7790    3.7847 C   0  0  0  0  0  0  0  0  0  0  0  0
   32.7056   10.5777    3.3127 O   0  0  0  0  0  0  0  0  0  0  0  0
   34.6206   12.0663    3.4714 C   0  0  2  0  0  0  0  0  0  0  0  0
   33.7157   13.2441    3.0818 C   0  0  0  0  0  0  0  0  0  0  0  0
   34.3853   13.8277    1.8625 C   0  0  0  0  0  0  0  0  0  0  0  0
   35.0371   12.6115    1.2553 C   0  0  0  0  0  0  0  0  0  0  0  0
   35.5052   11.8321    2.3655 O   0  0  0  0  0  0  0  0  0  0  0  0
  1  2  1  0
  2  3  2  0
  3  4  1  0
  4  5  2  0
  5  6  1  0
  6  7  1  0
  7  8  2  0
  7  9  1  0
  9 10  1  0
 10 11  3  0
  5 12  1  0
 12 13  2  0
 13 14  1  0
 14 15  1  0
 15 16  2  0
 17 15  1  6
 17 18  1  0
 18 19  1  0
 19 20  1  0
 20 21  1  0
 13  2  1  0
 21 17  1  0
M  END
>  <original ID>  (6) 
None

>  <RMSD>  (6) 
2.36703

>  <submitter_name>  (6) 
None

>  <original SMILES>  (6) 
Cc1ccc(NC(=O)CC#N)cc1NC(=O)[C@@H]1CCCO1

>  <ref_pdb>  (6) 
Ax0310a

>  <method>  (6) 
None

>  <ddG>  (6) 
33.646329

>  <submitter_email>  (6) 
None

>  <ref_url>  (6) 
None

>  <ref_mols>  (6) 
Ax0310a,Ax0416a

>  <tags>  (6) 
['base']

>  <generation_date>  (6) 
None

$$$$
N#CCC(=O)Nc1ccnc(NC(=O)[C@@H]2CCCO2)c1
     RDKit          3D

 20 21  0  0  0  0  0  0  0  0999 V2000
   30.2878   15.8147    5.7071 N   0  0  0  0  0  0  0  0  0  0  0  0
   30.8310   14.9276    6.2277 C   0  0  0  0  0  0  0  0  0  0  0  0
   31.5198   13.7968    6.8783 C   0  0  0  0  0  0  0  0  0  0  0  0
   31.1616   12.4898    6.1524 C   0  0  0  0  0  0  0  0  0  0  0  0
   30.6136   12.4384    5.0509 O   0  0  0  0  0  0  0  0  0  0  0  0
   31.3096   11.2967    6.8750 N   0  0  0  0  0  0  0  0  0  0  0  0
   32.4216   10.5204    6.4746 C   0  0  0  0  0  0  0  0  0  0  0  0
   32.2797    9.1849    6.1439 C   0  0  0  0  0  0  0  0  0  0  0  0
   33.2440    8.6757    5.3027 C   0  0  0  0  0  0  0  0  0  0  0  0
   34.1778    9.4499    4.7017 N   0  0  0  0  0  0  0  0  0  0  0  0
   34.2597   10.7333    5.1039 C   0  0  0  0  0  0  0  0  0  0  0  0
   34.8292   11.6426    4.2130 N   0  0  0  0  0  0  0  0  0  0  0  0
   34.5737   13.0075    4.1893 C   0  0  0  0  0  0  0  0  0  0  0  0
   34.1557   13.6994    5.1155 O   0  0  0  0  0  0  0  0  0  0  0  0
   34.8592   13.6297    2.8238 C   0  0  2  0  0  0  0  0  0  0  0  0
   33.6710   14.4567    2.3505 C   0  0  0  0  0  0  0  0  0  0  0  0
   33.7468   14.3017    0.8554 C   0  0  0  0  0  0  0  0  0  0  0  0
   34.2173   12.8737    0.7193 C   0  0  0  0  0  0  0  0  0  0  0  0
   35.1077   12.6311    1.8164 O   0  0  0  0  0  0  0  0  0  0  0  0
   33.5766   11.1988    6.1851 C   0  0  0  0  0  0  0  0  0  0  0  0
  1  2  3  0
  2  3  1  0
  3  4  1  0
  4  5  2  0
  4  6  1  0
  6  7  1  0
  7  8  2  0
  8  9  1  0
  9 10  2  0
 10 11  1  0
 11 12  1  0
 12 13  1  0
 13 14  2  0
 15 13  1  1
 15 16  1  0
 16 17  1  0
 17 18  1  0
 18 19  1  0
 11 20  2  0
 20  7  1  0
 19 15  1  0
M  END
>  <original ID>  (7) 
None

>  <RMSD>  (7) 
1.617315

>  <submitter_name>  (7) 
None

>  <original SMILES>  (7) 
N#CCC(=O)Nc1ccnc(NC(=O)[C@@H]2CCCO2)c1

>  <ref_pdb>  (7) 
Ax0310a

>  <method>  (7) 
None

>  <ddG>  (7) 
11.022432

>  <submitter_email>  (7) 
None

>  <ref_url>  (7) 
None

>  <ref_mols>  (7) 
Ax0310a,Ax0416a

>  <tags>  (7) 
['base']

>  <generation_date>  (7) 
None

$$$$
N#CCC(=O)Nc1ccnc(NC(=O)[C@H]2CCCO2)c1
     RDKit          3D

 20 21  0  0  0  0  0  0  0  0999 V2000
   31.9571   14.4381    8.2729 N   0  0  0  0  0  0  0  0  0  0  0  0
   31.5641   14.1240    7.2300 C   0  0  0  0  0  0  0  0  0  0  0  0
   31.1570   13.7123    5.8982 C   0  0  0  0  0  0  0  0  0  0  0  0
   30.8084   12.2381    5.7333 C   0  0  0  0  0  0  0  0  0  0  0  0
   30.1302   11.8881    4.7636 O   0  0  0  0  0  0  0  0  0  0  0  0
   31.1455   11.2726    6.6789 N   0  0  0  0  0  0  0  0  0  0  0  0
   32.3739   10.6195    6.4593 C   0  0  0  0  0  0  0  0  0  0  0  0
   32.4280    9.2417    6.3154 C   0  0  0  0  0  0  0  0  0  0  0  0
   33.5395    8.7432    5.6735 C   0  0  0  0  0  0  0  0  0  0  0  0
   34.4596    9.5376    5.0816 N   0  0  0  0  0  0  0  0  0  0  0  0
   34.3668   10.8617    5.3119 C   0  0  0  0  0  0  0  0  0  0  0  0
   34.9870   11.7019    4.3826 N   0  0  0  0  0  0  0  0  0  0  0  0
   34.5088   12.9818    4.1285 C   0  0  0  0  0  0  0  0  0  0  0  0
   34.2934   13.8484    4.9723 O   0  0  0  0  0  0  0  0  0  0  0  0
   34.0959   13.1363    2.6674 C   0  0  1  0  0  0  0  0  0  0  0  0
   33.8249   14.5691    2.2529 C   0  0  0  0  0  0  0  0  0  0  0  0
   34.1070   14.5123    0.7747 C   0  0  0  0  0  0  0  0  0  0  0  0
   35.2788   13.5565    0.7196 C   0  0  0  0  0  0  0  0  0  0  0  0
   35.0889   12.6081    1.7778 O   0  0  0  0  0  0  0  0  0  0  0  0
   33.4649   11.3979    6.1840 C   0  0  0  0  0  0  0  0  0  0  0  0
  1  2  3  0
  2  3  1  0
  3  4  1  0
  4  5  2  0
  4  6  1  0
  6  7  1  0
  7  8  2  0
  8  9  1  0
  9 10  2  0
 10 11  1  0
 11 12  1  0
 12 13  1  0
 13 14  2  0
 15 13  1  1
 15 16  1  0
 16 17  1  0
 17 18  1  0
 18 19  1  0
 11 20  2  0
 20  7  1  0
 19 15  1  0
M  END
>  <original ID>  (8) 
None

>  <RMSD>  (8) 
1.799536

>  <submitter_name>  (8) 
None

>  <original SMILES>  (8) 
N#CCC(=O)Nc1ccnc(NC(=O)[C@H]2CCCO2)c1

>  <ref_pdb>  (8) 
Ax0310a

>  <method>  (8) 
None

>  <ddG>  (8) 
7.935294

>  <submitter_email>  (8) 
None

>  <ref_url>  (8) 
None

>  <ref_mols>  (8) 
Ax0310a,Ax0416a

>  <tags>  (8) 
['base']

>  <generation_date>  (8) 
None

$$$$
Cc1ccc(NC(=O)[C@@H]2CCCO2)cc1NC(=O)CC#N
     RDKit          3D

 21 22  0  0  0  0  0  0  0  0999 V2000
   31.4842    8.7609    6.7602 C   0  0  0  0  0  0  0  0  0  0  0  0
   32.1831    9.6206    5.7997 C   0  0  0  0  0  0  0  0  0  0  0  0
   33.1787    9.0410    4.9976 C   0  0  0  0  0  0  0  0  0  0  0  0
   33.9518    9.8402    4.1634 C   0  0  0  0  0  0  0  0  0  0  0  0
   33.6593   11.1923    4.0880 C   0  0  0  0  0  0  0  0  0  0  0  0
   34.4710   12.0853    3.4086 N   0  0  0  0  0  0  0  0  0  0  0  0
   34.5126   13.4516    3.6845 C   0  0  0  0  0  0  0  0  0  0  0  0
   34.1248   14.0258    4.6992 O   0  0  0  0  0  0  0  0  0  0  0  0
   34.9968   14.2362    2.4771 C   0  0  2  0  0  0  0  0  0  0  0  0
   33.7937   14.8977    1.8133 C   0  0  0  0  0  0  0  0  0  0  0  0
   34.0634   14.7034    0.3460 C   0  0  0  0  0  0  0  0  0  0  0  0
   34.7763   13.3750    0.3285 C   0  0  0  0  0  0  0  0  0  0  0  0
   35.5990   13.3569    1.5006 O   0  0  0  0  0  0  0  0  0  0  0  0
   32.5573   11.7034    4.7259 C   0  0  0  0  0  0  0  0  0  0  0  0
   31.9632   10.9836    5.7260 C   0  0  0  0  0  0  0  0  0  0  0  0
   31.3205   11.7765    6.6898 N   0  0  0  0  0  0  0  0  0  0  0  0
   32.0708   12.8718    7.1230 C   0  0  0  0  0  0  0  0  0  0  0  0
   33.2934   12.7932    7.2217 O   0  0  0  0  0  0  0  0  0  0  0  0
   31.4055   14.1153    7.5822 C   0  0  0  0  0  0  0  0  0  0  0  0
   30.8049   14.8150    6.4398 C   0  0  0  0  0  0  0  0  0  0  0  0
   30.2830   15.3659    5.5590 N   0  0  0  0  0  0  0  0  0  0  0  0
  1  2  1  0
  2  3  2  0
  3  4  1  0
  4  5  2  0
  5  6  1  0
  6  7  1  0
  7  8  2  0
  9  7  1  1
  9 10  1  0
 10 11  1  0
 11 12  1  0
 12 13  1  0
  5 14  1  0
 14 15  2  0
 15 16  1  0
 16 17  1  0
 17 18  2  0
 17 19  1  0
 19 20  1  0
 20 21  3  0
 15  2  1  0
 13  9  1  0
M  END
>  <original ID>  (9) 
None

>  <RMSD>  (9) 
1.66797

>  <submitter_name>  (9) 
None

>  <original SMILES>  (9) 
Cc1ccc(NC(=O)[C@@H]2CCCO2)cc1NC(=O)CC#N

>  <ref_pdb>  (9) 
Ax0310a

>  <method>  (9) 
None

>  <ddG>  (9) 
11.691815

>  <submitter_email>  (9) 
None

>  <ref_url>  (9) 
None

>  <ref_mols>  (9) 
Ax0310a,Ax0416a

>  <tags>  (9) 
['base']

>  <generation_date>  (9) 
None

$$$$
Cc1ccc(NC(=O)[C@H]2CCCO2)cc1NC(=O)CC#N
     RDKit          3D

 21 22  0  0  0  0  0  0  0  0999 V2000
   31.2004    8.6957    6.1526 C   0  0  0  0  0  0  0  0  0  0  0  0
   32.4708    9.4654    6.1119 C   0  0  0  0  0  0  0  0  0  0  0  0
   33.5828    8.8809    5.5002 C   0  0  0  0  0  0  0  0  0  0  0  0
   34.6076    9.7021    5.0457 C   0  0  0  0  0  0  0  0  0  0  0  0
   34.5633   11.0600    5.3450 C   0  0  0  0  0  0  0  0  0  0  0  0
   35.1580   11.9801    4.4568 N   0  0  0  0  0  0  0  0  0  0  0  0
   34.5169   13.2042    4.2194 C   0  0  0  0  0  0  0  0  0  0  0  0
   34.2631   14.0550    5.0676 O   0  0  0  0  0  0  0  0  0  0  0  0
   34.0032   13.2756    2.7829 C   0  0  1  0  0  0  0  0  0  0  0  0
   33.6843   14.6785    2.3106 C   0  0  0  0  0  0  0  0  0  0  0  0
   33.9000   14.5534    0.8251 C   0  0  0  0  0  0  0  0  0  0  0  0
   35.0855   13.6160    0.7590 C   0  0  0  0  0  0  0  0  0  0  0  0
   34.9637   12.7148    1.8678 O   0  0  0  0  0  0  0  0  0  0  0  0
   33.6848   11.5317    6.2900 C   0  0  0  0  0  0  0  0  0  0  0  0
   32.5231   10.8224    6.4505 C   0  0  0  0  0  0  0  0  0  0  0  0
   31.3526   11.5617    6.7447 N   0  0  0  0  0  0  0  0  0  0  0  0
   31.1835   12.7479    6.0336 C   0  0  0  0  0  0  0  0  0  0  0  0
   30.6454   12.6839    4.9285 O   0  0  0  0  0  0  0  0  0  0  0  0
   31.4803   14.0489    6.7739 C   0  0  0  0  0  0  0  0  0  0  0  0
   30.7201   15.1495    6.1594 C   0  0  0  0  0  0  0  0  0  0  0  0
   30.1259   16.0211    5.6692 N   0  0  0  0  0  0  0  0  0  0  0  0
  1  2  1  0
  2  3  2  0
  3  4  1  0
  4  5  2  0
  5  6  1  0
  6  7  1  0
  7  8  2  0
  9  7  1  1
  9 10  1  0
 10 11  1  0
 11 12  1  0
 12 13  1  0
  5 14  1  0
 14 15  2  0
 15 16  1  0
 16 17  1  0
 17 18  2  0
 17 19  1  0
 19 20  1  0
 20 21  3  0
 15  2  1  0
 13  9  1  0
M  END
>  <original ID>  (10) 
None

>  <RMSD>  (10) 
1.700294

>  <submitter_name>  (10) 
None

>  <original SMILES>  (10) 
Cc1ccc(NC(=O)[C@H]2CCCO2)cc1NC(=O)CC#N

>  <ref_pdb>  (10) 
Ax0310a

>  <method>  (10) 
None

>  <ddG>  (10) 
9.69041

>  <submitter_email>  (10) 
None

>  <ref_url>  (10) 
None

>  <ref_mols>  (10) 
Ax0310a,Ax0416a

>  <tags>  (10) 
['base']

>  <generation_date>  (10) 
None

$$$$
N#CCC(=O)Nc1cc(NC(=O)[C@@H]2CCCO2)ccc1F
     RDKit          3D

 21 22  0  0  0  0  0  0  0  0999 V2000
   30.2309   15.8433    5.6749 N   0  0  0  0  0  0  0  0  0  0  0  0
   30.7874   14.9604    6.1886 C   0  0  0  0  0  0  0  0  0  0  0  0
   31.5007   13.8437    6.8345 C   0  0  0  0  0  0  0  0  0  0  0  0
   31.1545   12.5227    6.1282 C   0  0  0  0  0  0  0  0  0  0  0  0
   30.5876   12.4475    5.0382 O   0  0  0  0  0  0  0  0  0  0  0  0
   31.3465   11.3463    6.8629 N   0  0  0  0  0  0  0  0  0  0  0  0
   32.4980   10.6131    6.4856 C   0  0  0  0  0  0  0  0  0  0  0  0
   33.6190   11.3263    6.1508 C   0  0  0  0  0  0  0  0  0  0  0  0
   34.3613   10.8590    5.0965 C   0  0  0  0  0  0  0  0  0  0  0  0
   34.9431   11.7752    4.2076 N   0  0  0  0  0  0  0  0  0  0  0  0
   34.6383   13.1384    4.1651 C   0  0  0  0  0  0  0  0  0  0  0  0
   34.1878   13.8298    5.0751 O   0  0  0  0  0  0  0  0  0  0  0  0
   34.9081   13.7404    2.7875 C   0  0  2  0  0  0  0  0  0  0  0  0
   33.6978   14.5231    2.2964 C   0  0  0  0  0  0  0  0  0  0  0  0
   33.7690   14.3244    0.8065 C   0  0  0  0  0  0  0  0  0  0  0  0
   34.2731   12.9048    0.7101 C   0  0  0  0  0  0  0  0  0  0  0  0
   35.1783   12.7170    1.8067 O   0  0  0  0  0  0  0  0  0  0  0  0
   34.3280    9.4977    4.7831 C   0  0  0  0  0  0  0  0  0  0  0  0
   33.3974    8.6675    5.4138 C   0  0  0  0  0  0  0  0  0  0  0  0
   32.4299    9.2544    6.2120 C   0  0  0  0  0  0  0  0  0  0  0  0
   31.3727    8.5480    6.6147 F   0  0  0  0  0  0  0  0  0  0  0  0
  1  2  3  0
  2  3  1  0
  3  4  1  0
  4  5  2  0
  4  6  1  0
  6  7  1  0
  7  8  2  0
  8  9  1  0
  9 10  1  0
 10 11  1  0
 11 12  2  0
 13 11  1  1
 13 14  1  0
 14 15  1  0
 15 16  1  0
 16 17  1  0
  9 18  2  0
 18 19  1  0
 19 20  2  0
 20 21  1  0
 20  7  1  0
 17 13  1  0
M  END
>  <original ID>  (11) 
None

>  <RMSD>  (11) 
1.654951

>  <submitter_name>  (11) 
None

>  <original SMILES>  (11) 
N#CCC(=O)Nc1cc(NC(=O)[C@@H]2CCCO2)ccc1F

>  <ref_pdb>  (11) 
Ax0310a

>  <method>  (11) 
None

>  <ddG>  (11) 
0.481056

>  <submitter_email>  (11) 
None

>  <ref_url>  (11) 
None

>  <ref_mols>  (11) 
Ax0310a,Ax0416a

>  <tags>  (11) 
['base']

>  <generation_date>  (11) 
None

$$$$
Cc1cc(NC(=O)CC#N)cc(NC(=O)[C@@H]2CCCO2)c1
     RDKit          3D

 21 22  0  0  0  0  0  0  0  0999 V2000
   33.8190    7.4677    5.0949 C   0  0  0  0  0  0  0  0  0  0  0  0
   33.6657    8.9112    5.4456 C   0  0  0  0  0  0  0  0  0  0  0  0
   32.4993    9.3919    6.0534 C   0  0  0  0  0  0  0  0  0  0  0  0
   32.4198   10.7481    6.3612 C   0  0  0  0  0  0  0  0  0  0  0  0
   31.1739   11.3708    6.5517 N   0  0  0  0  0  0  0  0  0  0  0  0
   30.9427   12.5475    5.8251 C   0  0  0  0  0  0  0  0  0  0  0  0
   30.2428   12.4786    4.8156 O   0  0  0  0  0  0  0  0  0  0  0  0
   31.4123   13.8787    6.4263 C   0  0  0  0  0  0  0  0  0  0  0  0
   30.5936   15.0126    5.9689 C   0  0  0  0  0  0  0  0  0  0  0  0
   30.0062   15.9389    5.5827 N   0  0  0  0  0  0  0  0  0  0  0  0
   33.5298   11.5486    6.2726 C   0  0  0  0  0  0  0  0  0  0  0  0
   34.5834   11.1345    5.4917 C   0  0  0  0  0  0  0  0  0  0  0  0
   35.5165   12.1071    5.0532 N   0  0  0  0  0  0  0  0  0  0  0  0
   34.9578   13.3035    4.6083 C   0  0  0  0  0  0  0  0  0  0  0  0
   34.7368   14.2226    5.3992 O   0  0  0  0  0  0  0  0  0  0  0  0
   34.7691   13.4420    3.0923 C   0  0  2  0  0  0  0  0  0  0  0  0
   33.5636   14.3075    2.7523 C   0  0  0  0  0  0  0  0  0  0  0  0
   33.2950   13.9098    1.3253 C   0  0  0  0  0  0  0  0  0  0  0  0
   33.5981   12.4295    1.3632 C   0  0  0  0  0  0  0  0  0  0  0  0
   34.6316   12.2377    2.3378 O   0  0  0  0  0  0  0  0  0  0  0  0
   34.6898    9.8081    5.1130 C   0  0  0  0  0  0  0  0  0  0  0  0
  1  2  1  0
  2  3  2  0
  3  4  1  0
  4  5  1  0
  5  6  1  0
  6  7  2  0
  6  8  1  0
  8  9  1  0
  9 10  3  0
  4 11  2  0
 11 12  1  0
 12 13  1  0
 13 14  1  0
 14 15  2  0
 16 14  1  1
 16 17  1  0
 17 18  1  0
 18 19  1  0
 19 20  1  0
 12 21  2  0
 21  2  1  0
 20 16  1  0
M  END
>  <original ID>  (12) 
None

>  <RMSD>  (12) 
1.744343

>  <submitter_name>  (12) 
None

>  <original SMILES>  (12) 
Cc1cc(NC(=O)CC#N)cc(NC(=O)[C@@H]2CCCO2)c1

>  <ref_pdb>  (12) 
Ax0310a

>  <method>  (12) 
None

>  <ddG>  (12) 
-33.200476

>  <submitter_email>  (12) 
None

>  <ref_url>  (12) 
None

>  <ref_mols>  (12) 
Ax0310a,Ax0416a

>  <tags>  (12) 
['base']

>  <generation_date>  (12) 
None

$$$$
Cc1cc(NC(=O)CC#N)cc(NC(=O)[C@H]2CCCO2)c1
     RDKit          3D

 21 22  0  0  0  0  0  0  0  0999 V2000
   33.9611    7.3835    5.2982 C   0  0  0  0  0  0  0  0  0  0  0  0
   33.7716    8.8396    5.5573 C   0  0  0  0  0  0  0  0  0  0  0  0
   32.6636    9.3373    6.2551 C   0  0  0  0  0  0  0  0  0  0  0  0
   32.5925   10.7098    6.4879 C   0  0  0  0  0  0  0  0  0  0  0  0
   31.3623   11.3514    6.7744 N   0  0  0  0  0  0  0  0  0  0  0  0
   31.1383   12.5453    6.0763 C   0  0  0  0  0  0  0  0  0  0  0  0
   30.5478   12.4859    4.9970 O   0  0  0  0  0  0  0  0  0  0  0  0
   31.4726   13.8693    6.7926 C   0  0  0  0  0  0  0  0  0  0  0  0
   30.7402   14.9834    6.1617 C   0  0  0  0  0  0  0  0  0  0  0  0
   30.1778   15.8677    5.6568 N   0  0  0  0  0  0  0  0  0  0  0  0
   33.6761   11.5122    6.2254 C   0  0  0  0  0  0  0  0  0  0  0  0
   34.5519   11.0916    5.2597 C   0  0  0  0  0  0  0  0  0  0  0  0
   35.0965   12.0349    4.3659 N   0  0  0  0  0  0  0  0  0  0  0  0
   34.3796   13.2139    4.1220 C   0  0  0  0  0  0  0  0  0  0  0  0
   34.1505   14.0855    4.9553 O   0  0  0  0  0  0  0  0  0  0  0  0
   33.7694   13.1877    2.7164 C   0  0  1  0  0  0  0  0  0  0  0  0
   33.2954   14.5345    2.2072 C   0  0  0  0  0  0  0  0  0  0  0  0
   34.4352   14.9649    1.3205 C   0  0  0  0  0  0  0  0  0  0  0  0
   34.9147   13.6503    0.7519 C   0  0  0  0  0  0  0  0  0  0  0  0
   34.7502   12.6777    1.7892 O   0  0  0  0  0  0  0  0  0  0  0  0
   34.6800    9.7398    4.9939 C   0  0  0  0  0  0  0  0  0  0  0  0
  1  2  1  0
  2  3  2  0
  3  4  1  0
  4  5  1  0
  5  6  1  0
  6  7  2  0
  6  8  1  0
  8  9  1  0
  9 10  3  0
  4 11  2  0
 11 12  1  0
 12 13  1  0
 13 14  1  0
 14 15  2  0
 16 14  1  1
 16 17  1  0
 17 18  1  0
 18 19  1  0
 19 20  1  0
 12 21  2  0
 21  2  1  0
 20 16  1  0
M  END
>  <original ID>  (13) 
None

>  <RMSD>  (13) 
1.790751

>  <submitter_name>  (13) 
None

>  <original SMILES>  (13) 
Cc1cc(NC(=O)CC#N)cc(NC(=O)[C@H]2CCCO2)c1

>  <ref_pdb>  (13) 
Ax0310a

>  <method>  (13) 
None

>  <ddG>  (13) 
-2.970887

>  <submitter_email>  (13) 
None

>  <ref_url>  (13) 
None

>  <ref_mols>  (13) 
Ax0310a,Ax0416a

>  <tags>  (13) 
['base']

>  <generation_date>  (13) 
None

$$$$
Cn1ncc(NC(=O)CC#N)c1NC(=O)CO
     RDKit          3D

 17 17  0  0  0  0  0  0  0  0999 V2000
   35.2678    9.0079    5.8392 C   0  0  0  0  0  0  0  0  0  0  0  0
   33.9418    9.5084    6.0624 N   0  0  0  0  0  0  0  0  0  0  0  0
   32.9430    8.6245    6.2693 N   0  0  0  0  0  0  0  0  0  0  0  0
   31.8799    9.3923    6.4937 C   0  0  0  0  0  0  0  0  0  0  0  0
   32.1904   10.7562    6.3813 C   0  0  0  0  0  0  0  0  0  0  0  0
   31.4157   11.8372    6.7152 N   0  0  0  0  0  0  0  0  0  0  0  0
   31.6529   13.0907    6.2155 C   0  0  0  0  0  0  0  0  0  0  0  0
   32.1606   13.2750    5.1081 O   0  0  0  0  0  0  0  0  0  0  0  0
   31.3616   14.2745    7.0888 C   0  0  0  0  0  0  0  0  0  0  0  0
   30.6233   15.2515    6.2760 C   0  0  0  0  0  0  0  0  0  0  0  0
   30.0426   16.0283    5.6355 N   0  0  0  0  0  0  0  0  0  0  0  0
   33.5275   10.8115    6.0678 C   0  0  0  0  0  0  0  0  0  0  0  0
   34.3494   11.9274    5.8981 N   0  0  0  0  0  0  0  0  0  0  0  0
   34.8068   12.5457    7.0670 C   0  0  0  0  0  0  0  0  0  0  0  0
   34.9060   11.9941    8.1596 O   0  0  0  0  0  0  0  0  0  0  0  0
   35.1929   14.0279    6.9010 C   0  0  0  0  0  0  0  0  0  0  0  0
   34.9013   14.6328    5.6554 O   0  0  0  0  0  0  0  0  0  0  0  0
  1  2  1  0
  2  3  1  0
  3  4  2  0
  4  5  1  0
  5  6  1  0
  6  7  1  0
  7  8  2  0
  7  9  1  0
  9 10  1  0
 10 11  3  0
  5 12  2  0
 12 13  1  0
 13 14  1  0
 14 15  2  0
 14 16  1  0
 16 17  1  0
 12  2  1  0
M  END
>  <original ID>  (14) 
None

>  <RMSD>  (14) 
1.790751

>  <submitter_name>  (14) 
None

>  <original SMILES>  (14) 
Cn1ncc(NC(=O)CC#N)c1NC(=O)CO

>  <ref_pdb>  (14) 
Ax0310a

>  <method>  (14) 
None

>  <ddG>  (14) 
-2.970887

>  <submitter_email>  (14) 
None

>  <ref_url>  (14) 
None

>  <ref_mols>  (14) 
Ax0732a,Ax0310a

>  <tags>  (14) 
['base']

>  <generation_date>  (14) 
None

$$$$
Cc1cc(NC(=O)CC#N)cc(OCC(=O)N2CCOCC2)c1
     RDKit          3D

 23 24  0  0  0  0  0  0  0  0999 V2000
   32.4132    8.3357    5.5815 C   0  0  0  0  0  0  0  0  0  0  0  0
   32.5232    9.8128    5.7251 C   0  0  0  0  0  0  0  0  0  0  0  0
   31.5355   10.6257    5.1635 C   0  0  0  0  0  0  0  0  0  0  0  0
   31.5589   12.0084    5.3374 C   0  0  0  0  0  0  0  0  0  0  0  0
   30.5080   12.7306    4.7578 N   0  0  0  0  0  0  0  0  0  0  0  0
   30.1211   14.0414    4.7751 C   0  0  0  0  0  0  0  0  0  0  0  0
   29.1261   14.3063    4.0942 O   0  0  0  0  0  0  0  0  0  0  0  0
   30.8485   15.0928    5.5782 C   0  0  0  0  0  0  0  0  0  0  0  0
   30.1670   16.3928    5.5499 C   0  0  0  0  0  0  0  0  0  0  0  0
   29.6789   17.4472    5.5386 N   0  0  0  0  0  0  0  0  0  0  0  0
   32.6038   12.5625    6.0570 C   0  0  0  0  0  0  0  0  0  0  0  0
   33.6332   11.7693    6.5599 C   0  0  0  0  0  0  0  0  0  0  0  0
   34.6837   12.2841    7.2664 O   0  0  0  0  0  0  0  0  0  0  0  0
   35.2867   13.4038    6.6299 C   0  0  0  0  0  0  0  0  0  0  0  0
   34.6932   14.7842    6.9627 C   0  0  0  0  0  0  0  0  0  0  0  0
   33.9112   14.9454    7.9005 O   0  0  0  0  0  0  0  0  0  0  0  0
   35.0301   15.8324    6.1094 N   0  0  0  0  0  0  0  0  0  0  0  0
   34.6098   17.1845    6.4869 C   0  0  0  0  0  0  0  0  0  0  0  0
   35.7876   17.9135    7.1447 C   0  0  0  0  0  0  0  0  0  0  0  0
   36.9285   17.9363    6.2620 O   0  0  0  0  0  0  0  0  0  0  0  0
   37.3459   16.6059    5.9155 C   0  0  0  0  0  0  0  0  0  0  0  0
   36.2069   15.8377    5.2350 C   0  0  0  0  0  0  0  0  0  0  0  0
   33.5849   10.3924    6.4148 C   0  0  0  0  0  0  0  0  0  0  0  0
  1  2  1  0
  2  3  2  0
  3  4  1  0
  4  5  1  0
  5  6  1  0
  6  7  2  0
  6  8  1  0
  8  9  1  0
  9 10  3  0
  4 11  2  0
 11 12  1  0
 12 13  1  0
 13 14  1  0
 14 15  1  0
 15 16  2  0
 15 17  1  0
 17 18  1  0
 18 19  1  0
 19 20  1  0
 20 21  1  0
 21 22  1  0
 12 23  2  0
 23  2  1  0
 22 17  1  0
M  END
>  <original ID>  (15) 
None

>  <RMSD>  (15) 
2.942617

>  <submitter_name>  (15) 
None

>  <original SMILES>  (15) 
Cc1cc(NC(=O)CC#N)cc(OCC(=O)N2CCOCC2)c1

>  <ref_pdb>  (15) 
Ax0310a

>  <method>  (15) 
None

>  <ddG>  (15) 
-24.433224

>  <submitter_email>  (15) 
None

>  <ref_url>  (15) 
None

>  <ref_mols>  (15) 
Ax0739a,Ax0310a

>  <tags>  (15) 
['base']

>  <generation_date>  (15) 
None

$$$$
Cc1cnc(OCC(=O)N2CCOCC2)cc1NC(=O)CC#N
     RDKit          3D

 23 24  0  0  0  0  0  0  0  0999 V2000
   31.1928    8.7773    6.1284 C   0  0  0  0  0  0  0  0  0  0  0  0
   32.2477    9.7814    6.3943 C   0  0  0  0  0  0  0  0  0  0  0  0
   33.5397    9.3652    6.7128 C   0  0  0  0  0  0  0  0  0  0  0  0
   34.5412   10.2198    6.9907 N   0  0  0  0  0  0  0  0  0  0  0  0
   34.1977   11.5093    7.0743 C   0  0  0  0  0  0  0  0  0  0  0  0
   35.1868   12.4078    7.3327 O   0  0  0  0  0  0  0  0  0  0  0  0
   35.1772   13.4237    6.3413 C   0  0  0  0  0  0  0  0  0  0  0  0
   34.4288   14.7244    6.6911 C   0  0  0  0  0  0  0  0  0  0  0  0
   33.7685   14.8621    7.7223 O   0  0  0  0  0  0  0  0  0  0  0  0
   34.5393   15.7595    5.7705 N   0  0  0  0  0  0  0  0  0  0  0  0
   34.5977   17.0948    6.3578 C   0  0  0  0  0  0  0  0  0  0  0  0
   36.0756   17.4208    6.6238 C   0  0  0  0  0  0  0  0  0  0  0  0
   36.8368   17.3638    5.3991 O   0  0  0  0  0  0  0  0  0  0  0  0
   36.7587   16.0768    4.7675 C   0  0  0  0  0  0  0  0  0  0  0  0
   35.3010   15.6729    4.5222 C   0  0  0  0  0  0  0  0  0  0  0  0
   32.9342   11.9860    6.8519 C   0  0  0  0  0  0  0  0  0  0  0  0
   31.9841   11.1524    6.3606 C   0  0  0  0  0  0  0  0  0  0  0  0
   30.8539   11.6737    5.7237 N   0  0  0  0  0  0  0  0  0  0  0  0
   30.5224   12.9547    5.3340 C   0  0  0  0  0  0  0  0  0  0  0  0
   29.6906   13.0249    4.4270 O   0  0  0  0  0  0  0  0  0  0  0  0
   31.0685   14.2173    5.9862 C   0  0  0  0  0  0  0  0  0  0  0  0
   30.2732   15.4176    5.7028 C   0  0  0  0  0  0  0  0  0  0  0  0
   29.6797   16.3968    5.5030 N   0  0  0  0  0  0  0  0  0  0  0  0
  1  2  1  0
  2  3  2  0
  3  4  1  0
  4  5  2  0
  5  6  1  0
  6  7  1  0
  7  8  1  0
  8  9  2  0
  8 10  1  0
 10 11  1  0
 11 12  1  0
 12 13  1  0
 13 14  1  0
 14 15  1  0
  5 16  1  0
 16 17  2  0
 17 18  1  0
 18 19  1  0
 19 20  2  0
 19 21  1  0
 21 22  1  0
 22 23  3  0
 17  2  1  0
 15 10  1  0
M  END
>  <original ID>  (16) 
None

>  <RMSD>  (16) 
2.107285

>  <submitter_name>  (16) 
None

>  <original SMILES>  (16) 
Cc1cnc(OCC(=O)N2CCOCC2)cc1NC(=O)CC#N

>  <ref_pdb>  (16) 
Ax0310a

>  <method>  (16) 
None

>  <ddG>  (16) 
-16.60562

>  <submitter_email>  (16) 
None

>  <ref_url>  (16) 
None

>  <ref_mols>  (16) 
Ax0739a,Ax0310a

>  <tags>  (16) 
['base']

>  <generation_date>  (16) 
None

$$$$
Cc1cc(NC(=O)CC#N)cc(OCC(=O)N2CCOCC2)c1
     RDKit          3D

 23 24  0  0  0  0  0  0  0  0999 V2000
   32.4132    8.3357    5.5815 C   0  0  0  0  0  0  0  0  0  0  0  0
   32.5232    9.8128    5.7251 C   0  0  0  0  0  0  0  0  0  0  0  0
   31.5355   10.6257    5.1635 C   0  0  0  0  0  0  0  0  0  0  0  0
   31.5589   12.0084    5.3374 C   0  0  0  0  0  0  0  0  0  0  0  0
   30.5080   12.7306    4.7578 N   0  0  0  0  0  0  0  0  0  0  0  0
   30.1211   14.0414    4.7751 C   0  0  0  0  0  0  0  0  0  0  0  0
   29.1261   14.3063    4.0942 O   0  0  0  0  0  0  0  0  0  0  0  0
   30.8485   15.0928    5.5782 C   0  0  0  0  0  0  0  0  0  0  0  0
   30.1670   16.3928    5.5499 C   0  0  0  0  0  0  0  0  0  0  0  0
   29.6789   17.4472    5.5386 N   0  0  0  0  0  0  0  0  0  0  0  0
   32.6038   12.5625    6.0570 C   0  0  0  0  0  0  0  0  0  0  0  0
   33.6332   11.7693    6.5599 C   0  0  0  0  0  0  0  0  0  0  0  0
   34.6837   12.2841    7.2664 O   0  0  0  0  0  0  0  0  0  0  0  0
   35.2867   13.4038    6.6299 C   0  0  0  0  0  0  0  0  0  0  0  0
   34.6932   14.7842    6.9627 C   0  0  0  0  0  0  0  0  0  0  0  0
   33.9112   14.9454    7.9005 O   0  0  0  0  0  0  0  0  0  0  0  0
   35.0301   15.8324    6.1094 N   0  0  0  0  0  0  0  0  0  0  0  0
   34.6098   17.1845    6.4869 C   0  0  0  0  0  0  0  0  0  0  0  0
   35.7876   17.9135    7.1447 C   0  0  0  0  0  0  0  0  0  0  0  0
   36.9285   17.9363    6.2620 O   0  0  0  0  0  0  0  0  0  0  0  0
   37.3459   16.6059    5.9155 C   0  0  0  0  0  0  0  0  0  0  0  0
   36.2069   15.8377    5.2350 C   0  0  0  0  0  0  0  0  0  0  0  0
   33.5849   10.3924    6.4148 C   0  0  0  0  0  0  0  0  0  0  0  0
  1  2  1  0
  2  3  2  0
  3  4  1  0
  4  5  1  0
  5  6  1  0
  6  7  2  0
  6  8  1  0
  8  9  1  0
  9 10  3  0
  4 11  2  0
 11 12  1  0
 12 13  1  0
 13 14  1  0
 14 15  1  0
 15 16  2  0
 15 17  1  0
 17 18  1  0
 18 19  1  0
 19 20  1  0
 20 21  1  0
 21 22  1  0
 12 23  2  0
 23  2  1  0
 22 17  1  0
M  END
>  <original ID>  (17) 
None

>  <RMSD>  (17) 
2.942617

>  <submitter_name>  (17) 
None

>  <original SMILES>  (17) 
Cc1cc(NC(=O)CC#N)cc(OCC(=O)N2CCOCC2)c1

>  <ref_pdb>  (17) 
Ax0310a

>  <method>  (17) 
None

>  <ddG>  (17) 
-24.433224

>  <submitter_email>  (17) 
None

>  <ref_url>  (17) 
None

>  <ref_mols>  (17) 
Ax0739a,Ax0310a

>  <tags>  (17) 
['base']

>  <generation_date>  (17) 
None

$$$$
N#CCC(=O)Nc1cccc(OCC(=O)N2CCOCC2)c1
     RDKit          3D

 22 23  0  0  0  0  0  0  0  0999 V2000
   29.6503   16.5397    5.6541 N   0  0  0  0  0  0  0  0  0  0  0  0
   30.2244   15.5347    5.7668 C   0  0  0  0  0  0  0  0  0  0  0  0
   30.9996   14.2943    5.8946 C   0  0  0  0  0  0  0  0  0  0  0  0
   30.3660   13.1069    5.1854 C   0  0  0  0  0  0  0  0  0  0  0  0
   29.4903   13.2749    4.3356 O   0  0  0  0  0  0  0  0  0  0  0  0
   30.6686   11.7943    5.4739 N   0  0  0  0  0  0  0  0  0  0  0  0
   31.7771   11.1974    6.0687 C   0  0  0  0  0  0  0  0  0  0  0  0
   31.8222    9.8219    6.2978 C   0  0  0  0  0  0  0  0  0  0  0  0
   33.0288    9.2231    6.6826 C   0  0  0  0  0  0  0  0  0  0  0  0
   34.1675   10.0010    6.9016 C   0  0  0  0  0  0  0  0  0  0  0  0
   34.0731   11.3726    6.7516 C   0  0  0  0  0  0  0  0  0  0  0  0
   35.1335   12.1809    7.0086 O   0  0  0  0  0  0  0  0  0  0  0  0
   34.7748   13.2775    7.8346 C   0  0  0  0  0  0  0  0  0  0  0  0
   34.0659   14.5604    7.3464 C   0  0  0  0  0  0  0  0  0  0  0  0
   33.1929   15.0784    8.0486 O   0  0  0  0  0  0  0  0  0  0  0  0
   34.4701   15.1544    6.1608 N   0  0  0  0  0  0  0  0  0  0  0  0
   34.4950   16.6152    6.1562 C   0  0  0  0  0  0  0  0  0  0  0  0
   35.9330   17.0687    6.4575 C   0  0  0  0  0  0  0  0  0  0  0  0
   36.8597   16.5252    5.4959 O   0  0  0  0  0  0  0  0  0  0  0  0
   36.8234   15.0882    5.4782 C   0  0  0  0  0  0  0  0  0  0  0  0
   35.4086   14.5907    5.1886 C   0  0  0  0  0  0  0  0  0  0  0  0
   32.9129   11.9354    6.2700 C   0  0  0  0  0  0  0  0  0  0  0  0
  1  2  3  0
  2  3  1  0
  3  4  1  0
  4  5  2  0
  4  6  1  0
  6  7  1  0
  7  8  2  0
  8  9  1  0
  9 10  2  0
 10 11  1  0
 11 12  1  0
 12 13  1  0
 13 14  1  0
 14 15  2  0
 14 16  1  0
 16 17  1  0
 17 18  1  0
 18 19  1  0
 19 20  1  0
 20 21  1  0
 11 22  2  0
 22  7  1  0
 21 16  1  0
M  END
>  <original ID>  (18) 
None

>  <RMSD>  (18) 
2.058416

>  <submitter_name>  (18) 
None

>  <original SMILES>  (18) 
N#CCC(=O)Nc1cccc(OCC(=O)N2CCOCC2)c1

>  <ref_pdb>  (18) 
Ax0310a

>  <method>  (18) 
None

>  <ddG>  (18) 
-56.689029

>  <submitter_email>  (18) 
None

>  <ref_url>  (18) 
None

>  <ref_mols>  (18) 
Ax0739a,Ax0310a

>  <tags>  (18) 
['base']

>  <generation_date>  (18) 
None

$$$$
Cc1ccc(OCC(=O)N2CCOCC2)cc1NC(=O)CC#N
     RDKit          3D

 23 24  0  0  0  0  0  0  0  0999 V2000
   31.1736    8.8357    6.2833 C   0  0  0  0  0  0  0  0  0  0  0  0
   32.3001    9.7896    6.4333 C   0  0  0  0  0  0  0  0  0  0  0  0
   33.5251    9.3275    6.9380 C   0  0  0  0  0  0  0  0  0  0  0  0
   34.5683   10.2194    7.1743 C   0  0  0  0  0  0  0  0  0  0  0  0
   34.3876   11.5471    6.8589 C   0  0  0  0  0  0  0  0  0  0  0  0
   35.3434   12.4678    7.1357 O   0  0  0  0  0  0  0  0  0  0  0  0
   34.8105   13.5212    7.9211 C   0  0  0  0  0  0  0  0  0  0  0  0
   34.0705   14.7412    7.3429 C   0  0  0  0  0  0  0  0  0  0  0  0
   33.1609   15.2581    7.9983 O   0  0  0  0  0  0  0  0  0  0  0  0
   34.4919   15.3019    6.1467 N   0  0  0  0  0  0  0  0  0  0  0  0
   34.5140   16.7619    6.1154 C   0  0  0  0  0  0  0  0  0  0  0  0
   35.9418   17.2233    6.4540 C   0  0  0  0  0  0  0  0  0  0  0  0
   36.9009   16.6655    5.5331 O   0  0  0  0  0  0  0  0  0  0  0  0
   36.8664   15.2287    5.5371 C   0  0  0  0  0  0  0  0  0  0  0  0
   35.4618   14.7296    5.2092 C   0  0  0  0  0  0  0  0  0  0  0  0
   33.2376   11.9611    6.2323 C   0  0  0  0  0  0  0  0  0  0  0  0
   32.1522   11.1396    6.1053 C   0  0  0  0  0  0  0  0  0  0  0  0
   30.9631   11.6445    5.5734 N   0  0  0  0  0  0  0  0  0  0  0  0
   30.5534   12.9243    5.2732 C   0  0  0  0  0  0  0  0  0  0  0  0
   29.6368   13.0136    4.4555 O   0  0  0  0  0  0  0  0  0  0  0  0
   31.1211   14.1608    5.9496 C   0  0  0  0  0  0  0  0  0  0  0  0
   30.3032   15.3672    5.7702 C   0  0  0  0  0  0  0  0  0  0  0  0
   29.7158   16.3559    5.5970 N   0  0  0  0  0  0  0  0  0  0  0  0
  1  2  1  0
  2  3  2  0
  3  4  1  0
  4  5  2  0
  5  6  1  0
  6  7  1  0
  7  8  1  0
  8  9  2  0
  8 10  1  0
 10 11  1  0
 11 12  1  0
 12 13  1  0
 13 14  1  0
 14 15  1  0
  5 16  1  0
 16 17  2  0
 17 18  1  0
 18 19  1  0
 19 20  2  0
 19 21  1  0
 21 22  1  0
 22 23  3  0
 17  2  1  0
 15 10  1  0
M  END
>  <original ID>  (19) 
None

>  <RMSD>  (19) 
2.423443

>  <submitter_name>  (19) 
None

>  <original SMILES>  (19) 
Cc1ccc(OCC(=O)N2CCOCC2)cc1NC(=O)CC#N

>  <ref_pdb>  (19) 
Ax0310a

>  <method>  (19) 
None

>  <ddG>  (19) 
-14.540336

>  <submitter_email>  (19) 
None

>  <ref_url>  (19) 
None

>  <ref_mols>  (19) 
Ax0739a,Ax0310a

>  <tags>  (19) 
['base']

>  <generation_date>  (19) 
None

$$$$
N#CCC(=O)Nc1cc(OCC(=O)N2CCOCC2)ccc1F
     RDKit          3D

 23 24  0  0  0  0  0  0  0  0999 V2000
   29.8340   16.2559    5.6276 N   0  0  0  0  0  0  0  0  0  0  0  0
   30.3833   15.2452    5.7989 C   0  0  0  0  0  0  0  0  0  0  0  0
   31.1613   14.0090    5.9623 C   0  0  0  0  0  0  0  0  0  0  0  0
   30.5326   12.8033    5.2733 C   0  0  0  0  0  0  0  0  0  0  0  0
   29.6642   12.9486    4.4134 O   0  0  0  0  0  0  0  0  0  0  0  0
   30.8420   11.5066    5.6201 N   0  0  0  0  0  0  0  0  0  0  0  0
   32.0059   10.9483    6.1404 C   0  0  0  0  0  0  0  0  0  0  0  0
   33.1686   11.6700    6.0998 C   0  0  0  0  0  0  0  0  0  0  0  0
   34.3065   11.2225    6.7244 C   0  0  0  0  0  0  0  0  0  0  0  0
   35.3569   12.0341    6.9848 O   0  0  0  0  0  0  0  0  0  0  0  0
   35.3308   13.3025    6.3633 C   0  0  0  0  0  0  0  0  0  0  0  0
   34.3613   14.4208    6.8176 C   0  0  0  0  0  0  0  0  0  0  0  0
   33.6456   14.3283    7.8139 O   0  0  0  0  0  0  0  0  0  0  0  0
   34.3709   15.5813    6.0467 N   0  0  0  0  0  0  0  0  0  0  0  0
   34.4545   16.8169    6.8194 C   0  0  0  0  0  0  0  0  0  0  0  0
   35.9445   17.1600    6.9912 C   0  0  0  0  0  0  0  0  0  0  0  0
   36.5957   17.3012    5.7111 O   0  0  0  0  0  0  0  0  0  0  0  0
   36.4807   16.1224    4.9001 C   0  0  0  0  0  0  0  0  0  0  0  0
   35.0153   15.7112    4.7370 C   0  0  0  0  0  0  0  0  0  0  0  0
   34.3661    9.9114    7.1623 C   0  0  0  0  0  0  0  0  0  0  0  0
   33.2308    9.1032    7.0791 C   0  0  0  0  0  0  0  0  0  0  0  0
   32.0371    9.6494    6.6308 C   0  0  0  0  0  0  0  0  0  0  0  0
   30.9013    8.9682    6.7920 F   0  0  0  0  0  0  0  0  0  0  0  0
  1  2  3  0
  2  3  1  0
  3  4  1  0
  4  5  2  0
  4  6  1  0
  6  7  1  0
  7  8  2  0
  8  9  1  0
  9 10  1  0
 10 11  1  0
 11 12  1  0
 12 13  2  0
 12 14  1  0
 14 15  1  0
 15 16  1  0
 16 17  1  0
 17 18  1  0
 18 19  1  0
  9 20  2  0
 20 21  1  0
 21 22  2  0
 22 23  1  0
 22  7  1  0
 19 14  1  0
M  END
>  <original ID>  (20) 
None

>  <RMSD>  (20) 
2.265837

>  <submitter_name>  (20) 
None

>  <original SMILES>  (20) 
N#CCC(=O)Nc1cc(OCC(=O)N2CCOCC2)ccc1F

>  <ref_pdb>  (20) 
Ax0310a

>  <method>  (20) 
None

>  <ddG>  (20) 
-7.532138

>  <submitter_email>  (20) 
None

>  <ref_url>  (20) 
None

>  <ref_mols>  (20) 
Ax0739a,Ax0310a

>  <tags>  (20) 
['base']

>  <generation_date>  (20) 
None

$$$$
Cc1ccc(NC(=O)CC#N)cc1OCC(=O)N1CCOCC1
     RDKit          3D

 23 24  0  0  0  0  0  0  0  0999 V2000
   36.0727    9.6632    7.2653 C   0  0  0  0  0  0  0  0  0  0  0  0
   34.7063    9.8736    6.7053 C   0  0  0  0  0  0  0  0  0  0  0  0
   33.6826    8.9590    7.0097 C   0  0  0  0  0  0  0  0  0  0  0  0
   32.3659    9.2707    6.6919 C   0  0  0  0  0  0  0  0  0  0  0  0
   32.1338   10.4397    5.9959 C   0  0  0  0  0  0  0  0  0  0  0  0
   30.9157   11.1432    6.0745 N   0  0  0  0  0  0  0  0  0  0  0  0
   31.1049   12.5346    6.1947 C   0  0  0  0  0  0  0  0  0  0  0  0
   31.6450   12.9994    7.1931 O   0  0  0  0  0  0  0  0  0  0  0  0
   30.5061   13.3676    5.0822 C   0  0  0  0  0  0  0  0  0  0  0  0
   30.2505   14.7749    5.4339 C   0  0  0  0  0  0  0  0  0  0  0  0
   29.9766   15.8972    5.5698 N   0  0  0  0  0  0  0  0  0  0  0  0
   33.1647   11.1369    5.4184 C   0  0  0  0  0  0  0  0  0  0  0  0
   34.4196   11.0037    5.9367 C   0  0  0  0  0  0  0  0  0  0  0  0
   35.3569   11.9759    5.7693 O   0  0  0  0  0  0  0  0  0  0  0  0
   34.9638   13.1497    5.0657 C   0  0  0  0  0  0  0  0  0  0  0  0
   34.2428   14.2732    5.8319 C   0  0  0  0  0  0  0  0  0  0  0  0
   33.0943   14.5992    5.5382 O   0  0  0  0  0  0  0  0  0  0  0  0
   34.9956   14.9654    6.7591 N   0  0  0  0  0  0  0  0  0  0  0  0
   34.5324   16.2867    7.1756 C   0  0  0  0  0  0  0  0  0  0  0  0
   35.7132   17.2635    7.3054 C   0  0  0  0  0  0  0  0  0  0  0  0
   36.6495   17.1112    6.2241 O   0  0  0  0  0  0  0  0  0  0  0  0
   37.1949   15.7840    6.1352 C   0  0  0  0  0  0  0  0  0  0  0  0
   36.4185   14.7496    6.9543 C   0  0  0  0  0  0  0  0  0  0  0  0
  1  2  1  0
  2  3  2  0
  3  4  1  0
  4  5  2  0
  5  6  1  0
  6  7  1  0
  7  8  2  0
  7  9  1  0
  9 10  1  0
 10 11  3  0
  5 12  1  0
 12 13  2  0
 13 14  1  0
 14 15  1  0
 15 16  1  0
 16 17  2  0
 16 18  1  0
 18 19  1  0
 19 20  1  0
 20 21  1  0
 21 22  1  0
 22 23  1  0
 13  2  1  0
 23 18  1  0
M  END
>  <original ID>  (21) 
None

>  <RMSD>  (21) 
2.291512

>  <submitter_name>  (21) 
None

>  <original SMILES>  (21) 
Cc1ccc(NC(=O)CC#N)cc1OCC(=O)N1CCOCC1

>  <ref_pdb>  (21) 
Ax0310a

>  <method>  (21) 
None

>  <ddG>  (21) 
-183.447321

>  <submitter_email>  (21) 
None

>  <ref_url>  (21) 
None

>  <ref_mols>  (21) 
Ax0739a,Ax0310a

>  <tags>  (21) 
['base']

>  <generation_date>  (21) 
None

$$$$
Cc1cc(C)c(OCC(=O)N2CCOCC2)cc1NC(=O)CC#N
     RDKit          3D

 24 25  0  0  0  0  0  0  0  0999 V2000
   31.7138    8.7572    6.9708 C   0  0  0  0  0  0  0  0  0  0  0  0
   32.5254    9.7923    6.3312 C   0  0  0  0  0  0  0  0  0  0  0  0
   33.9014    9.6549    6.2329 C   0  0  0  0  0  0  0  0  0  0  0  0
   34.6317   10.7083    5.6799 C   0  0  0  0  0  0  0  0  0  0  0  0
   36.0981   10.7675    5.9403 C   0  0  0  0  0  0  0  0  0  0  0  0
   33.9394   11.7405    5.0213 C   0  0  0  0  0  0  0  0  0  0  0  0
   34.5762   12.9265    4.7673 O   0  0  0  0  0  0  0  0  0  0  0  0
   33.7574   14.1054    4.7083 C   0  0  0  0  0  0  0  0  0  0  0  0
   34.1337   15.1966    5.7121 C   0  0  0  0  0  0  0  0  0  0  0  0
   33.4119   15.4915    6.6650 O   0  0  0  0  0  0  0  0  0  0  0  0
   35.2958   15.9054    5.4697 N   0  0  0  0  0  0  0  0  0  0  0  0
   35.8319   16.6985    6.5743 C   0  0  0  0  0  0  0  0  0  0  0  0
   36.8987   15.8727    7.3006 C   0  0  0  0  0  0  0  0  0  0  0  0
   37.9288   15.4655    6.3755 O   0  0  0  0  0  0  0  0  0  0  0  0
   37.3824   14.6614    5.3134 C   0  0  0  0  0  0  0  0  0  0  0  0
   36.3276   15.4541    4.5416 C   0  0  0  0  0  0  0  0  0  0  0  0
   32.5831   11.6121    4.8210 C   0  0  0  0  0  0  0  0  0  0  0  0
   31.9396   10.9294    5.8138 C   0  0  0  0  0  0  0  0  0  0  0  0
   31.2195   11.7774    6.6937 N   0  0  0  0  0  0  0  0  0  0  0  0
   31.9537   12.8579    7.2100 C   0  0  0  0  0  0  0  0  0  0  0  0
   33.1641   12.7849    7.4038 O   0  0  0  0  0  0  0  0  0  0  0  0
   31.2657   14.0822    7.6771 C   0  0  0  0  0  0  0  0  0  0  0  0
   30.7229   14.7989    6.5081 C   0  0  0  0  0  0  0  0  0  0  0  0
   30.2589   15.3275    5.5810 N   0  0  0  0  0  0  0  0  0  0  0  0
  1  2  1  0
  2  3  2  0
  3  4  1  0
  4  5  1  0
  4  6  2  0
  6  7  1  0
  7  8  1  0
  8  9  1  0
  9 10  2  0
  9 11  1  0
 11 12  1  0
 12 13  1  0
 13 14  1  0
 14 15  1  0
 15 16  1  0
  6 17  1  0
 17 18  2  0
 18 19  1  0
 19 20  1  0
 20 21  2  0
 20 22  1  0
 22 23  1  0
 23 24  3  0
 18  2  1  0
 16 11  1  0
M  END
>  <original ID>  (22) 
None

>  <RMSD>  (22) 
2.268389

>  <submitter_name>  (22) 
None

>  <original SMILES>  (22) 
Cc1cc(C)c(OCC(=O)N2CCOCC2)cc1NC(=O)CC#N

>  <ref_pdb>  (22) 
Ax0310a

>  <method>  (22) 
None

>  <ddG>  (22) 
-168.485518

>  <submitter_email>  (22) 
None

>  <ref_url>  (22) 
None

>  <ref_mols>  (22) 
Ax0739a,Ax0310a

>  <tags>  (22) 
['base']

>  <generation_date>  (22) 
None

$$$$
N#CCC(=O)Nc1cncc(OCC(=O)N2CCOCC2)c1
     RDKit          3D

 22 23  0  0  0  0  0  0  0  0999 V2000
   30.2824   15.2567    5.6102 N   0  0  0  0  0  0  0  0  0  0  0  0
   30.7420   14.7240    6.5372 C   0  0  0  0  0  0  0  0  0  0  0  0
   31.2700   13.9858    7.7034 C   0  0  0  0  0  0  0  0  0  0  0  0
   31.8903   12.7169    7.2229 C   0  0  0  0  0  0  0  0  0  0  0  0
   33.1175   12.6537    7.2638 O   0  0  0  0  0  0  0  0  0  0  0  0
   31.1223   11.5775    6.8866 N   0  0  0  0  0  0  0  0  0  0  0  0
   31.7754   10.6220    6.0636 C   0  0  0  0  0  0  0  0  0  0  0  0
   32.3984    9.5200    6.6223 C   0  0  0  0  0  0  0  0  0  0  0  0
   33.7112    9.2991    6.4186 N   0  0  0  0  0  0  0  0  0  0  0  0
   34.3705   10.2779    5.7339 C   0  0  0  0  0  0  0  0  0  0  0  0
   33.7276   11.3089    5.0521 C   0  0  0  0  0  0  0  0  0  0  0  0
   34.4180   12.4428    4.7090 O   0  0  0  0  0  0  0  0  0  0  0  0
   33.6757   13.6708    4.5900 C   0  0  0  0  0  0  0  0  0  0  0  0
   34.0774   14.8420    5.5157 C   0  0  0  0  0  0  0  0  0  0  0  0
   33.3847   15.2052    6.4669 O   0  0  0  0  0  0  0  0  0  0  0  0
   35.2181   15.5541    5.1933 N   0  0  0  0  0  0  0  0  0  0  0  0
   35.7105   16.5123    6.1858 C   0  0  0  0  0  0  0  0  0  0  0  0
   36.7810   15.8332    7.0446 C   0  0  0  0  0  0  0  0  0  0  0  0
   37.8407   15.3309    6.2050 O   0  0  0  0  0  0  0  0  0  0  0  0
   37.3395   14.3694    5.2572 C   0  0  0  0  0  0  0  0  0  0  0  0
   36.2800   15.0088    4.3583 C   0  0  0  0  0  0  0  0  0  0  0  0
   32.3602   11.2173    4.9703 C   0  0  0  0  0  0  0  0  0  0  0  0
  1  2  3  0
  2  3  1  0
  3  4  1  0
  4  5  2  0
  4  6  1  0
  6  7  1  0
  7  8  2  0
  8  9  1  0
  9 10  2  0
 10 11  1  0
 11 12  1  0
 12 13  1  0
 13 14  1  0
 14 15  2  0
 14 16  1  0
 16 17  1  0
 17 18  1  0
 18 19  1  0
 19 20  1  0
 20 21  1  0
 11 22  2  0
 22  7  1  0
 21 16  1  0
M  END
>  <original ID>  (23) 
None

>  <RMSD>  (23) 
2.12307

>  <submitter_name>  (23) 
None

>  <original SMILES>  (23) 
N#CCC(=O)Nc1cncc(OCC(=O)N2CCOCC2)c1

>  <ref_pdb>  (23) 
Ax0310a

>  <method>  (23) 
None

>  <ddG>  (23) 
5.466253

>  <submitter_email>  (23) 
None

>  <ref_url>  (23) 
None

>  <ref_mols>  (23) 
Ax0739a,Ax0310a

>  <tags>  (23) 
['base']

>  <generation_date>  (23) 
None

$$$$
N#CCC(=O)Nc1ccnc(OCC(=O)N2CCOCC2)c1
     RDKit          3D

 22 23  0  0  0  0  0  0  0  0999 V2000
   30.1827   15.2140    5.5524 N   0  0  0  0  0  0  0  0  0  0  0  0
   30.6860   14.7156    6.4760 C   0  0  0  0  0  0  0  0  0  0  0  0
   31.2722   14.0226    7.6432 C   0  0  0  0  0  0  0  0  0  0  0  0
   31.8892   12.7438    7.1927 C   0  0  0  0  0  0  0  0  0  0  0  0
   33.1175   12.6917    7.1937 O   0  0  0  0  0  0  0  0  0  0  0  0
   31.1284   11.5847    6.9131 N   0  0  0  0  0  0  0  0  0  0  0  0
   31.7912   10.6256    6.1168 C   0  0  0  0  0  0  0  0  0  0  0  0
   32.3507    9.4937    6.6733 C   0  0  0  0  0  0  0  0  0  0  0  0
   33.6723    9.2858    6.3393 C   0  0  0  0  0  0  0  0  0  0  0  0
   34.3794   10.1531    5.5705 N   0  0  0  0  0  0  0  0  0  0  0  0
   33.6959   11.1616    4.9807 C   0  0  0  0  0  0  0  0  0  0  0  0
   34.4478   12.2318    4.5663 O   0  0  0  0  0  0  0  0  0  0  0  0
   33.8252   13.5135    4.4240 C   0  0  0  0  0  0  0  0  0  0  0  0
   34.0957   14.5934    5.4939 C   0  0  0  0  0  0  0  0  0  0  0  0
   33.1878   15.2215    6.0394 O   0  0  0  0  0  0  0  0  0  0  0  0
   35.4100   14.9072    5.7720 N   0  0  0  0  0  0  0  0  0  0  0  0
   35.6367   15.9766    6.7440 C   0  0  0  0  0  0  0  0  0  0  0  0
   37.0718   15.9696    7.2555 C   0  0  0  0  0  0  0  0  0  0  0  0
   37.9969   16.0006    6.1571 O   0  0  0  0  0  0  0  0  0  0  0  0
   37.8358   14.8259    5.3506 C   0  0  0  0  0  0  0  0  0  0  0  0
   36.4387   14.7669    4.7498 C   0  0  0  0  0  0  0  0  0  0  0  0
   32.3336   11.1992    4.9949 C   0  0  0  0  0  0  0  0  0  0  0  0
  1  2  3  0
  2  3  1  0
  3  4  1  0
  4  5  2  0
  4  6  1  0
  6  7  1  0
  7  8  2  0
  8  9  1  0
  9 10  2  0
 10 11  1  0
 11 12  1  0
 12 13  1  0
 13 14  1  0
 14 15  2  0
 14 16  1  0
 16 17  1  0
 17 18  1  0
 18 19  1  0
 19 20  1  0
 20 21  1  0
 11 22  2  0
 22  7  1  0
 21 16  1  0
M  END
>  <original ID>  (24) 
None

>  <RMSD>  (24) 
2.182619

>  <submitter_name>  (24) 
None

>  <original SMILES>  (24) 
N#CCC(=O)Nc1ccnc(OCC(=O)N2CCOCC2)c1

>  <ref_pdb>  (24) 
Ax0310a

>  <method>  (24) 
None

>  <ddG>  (24) 
-20.576818

>  <submitter_email>  (24) 
None

>  <ref_url>  (24) 
None

>  <ref_mols>  (24) 
Ax0739a,Ax0310a

>  <tags>  (24) 
['base']

>  <generation_date>  (24) 
None

$$$$
CC(=O)Nc1cccc(C)c1NC(=O)CO
     RDKit          3D

 16 16  0  0  0  0  0  0  0  0999 V2000
   31.7502   14.1669    7.9770 C   0  0  0  0  0  0  0  0  0  0  0  0
   31.2941   14.1269    6.5491 C   0  0  0  0  0  0  0  0  0  0  0  0
   30.5616   14.9766    6.0413 O   0  0  0  0  0  0  0  0  0  0  0  0
   31.6018   13.0770    5.7410 N   0  0  0  0  0  0  0  0  0  0  0  0
   32.1338   11.8298    6.0895 C   0  0  0  0  0  0  0  0  0  0  0  0
   31.2981   10.7270    5.9698 C   0  0  0  0  0  0  0  0  0  0  0  0
   31.7601    9.4420    6.2021 C   0  0  0  0  0  0  0  0  0  0  0  0
   33.1121    9.2548    6.4395 C   0  0  0  0  0  0  0  0  0  0  0  0
   33.9981   10.3495    6.4677 C   0  0  0  0  0  0  0  0  0  0  0  0
   35.4590   10.0362    6.5485 C   0  0  0  0  0  0  0  0  0  0  0  0
   33.4917   11.6558    6.3669 C   0  0  0  0  0  0  0  0  0  0  0  0
   34.2862   12.8209    6.4089 N   0  0  0  0  0  0  0  0  0  0  0  0
   35.1128   13.1235    7.4812 C   0  0  0  0  0  0  0  0  0  0  0  0
   35.4969   12.3510    8.3492 O   0  0  0  0  0  0  0  0  0  0  0  0
   35.4567   14.6156    7.5199 C   0  0  0  0  0  0  0  0  0  0  0  0
   35.1777   15.2831    6.2931 O   0  0  0  0  0  0  0  0  0  0  0  0
  1  2  1  0
  2  3  2  0
  2  4  1  0
  4  5  1  0
  5  6  2  0
  6  7  1  0
  7  8  2  0
  8  9  1  0
  9 10  1  0
  9 11  2  0
 11 12  1  0
 12 13  1  0
 13 14  2  0
 13 15  1  0
 15 16  1  0
 11  5  1  0
M  END
>  <original ID>  (25) 
None

>  <RMSD>  (25) 
1.944438

>  <submitter_name>  (25) 
None

>  <original SMILES>  (25) 
CC(=O)Nc1cccc(C)c1NC(=O)CO

>  <ref_pdb>  (25) 
Ax0310a

>  <method>  (25) 
None

>  <ddG>  (25) 
-18.255402

>  <submitter_email>  (25) 
None

>  <ref_url>  (25) 
None

>  <ref_mols>  (25) 
Ax0732a,Ax0884a

>  <tags>  (25) 
['base']

>  <generation_date>  (25) 
None

$$$$
CC(=O)Nc1cccc(NC(C)=O)c1CNS(C)(=O)=O
     RDKit          3D

 20 20  0  0  0  0  0  0  0  0999 V2000
   34.9524    9.6869    3.2957 C   0  0  0  0  0  0  0  0  0  0  0  0
   35.7399   10.6010    4.1911 C   0  0  0  0  0  0  0  0  0  0  0  0
   36.6724   11.2724    3.7435 O   0  0  0  0  0  0  0  0  0  0  0  0
   35.4451   10.7405    5.5163 N   0  0  0  0  0  0  0  0  0  0  0  0
   34.1798   10.5408    6.0793 C   0  0  0  0  0  0  0  0  0  0  0  0
   33.4274    9.3934    5.8187 C   0  0  0  0  0  0  0  0  0  0  0  0
   32.0595    9.4260    5.9797 C   0  0  0  0  0  0  0  0  0  0  0  0
   31.4820   10.6472    6.2717 C   0  0  0  0  0  0  0  0  0  0  0  0
   32.2592   11.7606    6.6185 C   0  0  0  0  0  0  0  0  0  0  0  0
   31.6244   12.9732    6.8627 N   0  0  0  0  0  0  0  0  0  0  0  0
   30.9373   13.7250    5.9371 C   0  0  0  0  0  0  0  0  0  0  0  0
   30.5914   13.1280    4.6088 C   0  0  0  0  0  0  0  0  0  0  0  0
   30.5686   14.8651    6.2100 O   0  0  0  0  0  0  0  0  0  0  0  0
   33.6347   11.6249    6.7690 C   0  0  0  0  0  0  0  0  0  0  0  0
   34.5166   12.3810    7.7502 C   0  0  0  0  0  0  0  0  0  0  0  0
   34.9398   13.7545    7.4662 N   0  0  0  0  0  0  0  0  0  0  0  0
   33.9313   14.9523    8.0953 S   0  0  0  0  0  6  0  0  0  0  0  0
   33.4808   15.7238    6.5660 C   0  0  0  0  0  0  0  0  0  0  0  0
   32.8094   14.3034    8.7310 O   0  0  0  0  0  0  0  0  0  0  0  0
   34.7733   15.8647    8.8211 O   0  0  0  0  0  0  0  0  0  0  0  0
  1  2  1  0
  2  3  2  0
  2  4  1  0
  4  5  1  0
  5  6  2  0
  6  7  1  0
  7  8  2  0
  8  9  1  0
  9 10  1  0
 10 11  1  0
 11 12  1  0
 11 13  2  0
  9 14  2  0
 14 15  1  0
 15 16  1  0
 16 17  1  0
 17 18  1  0
 17 19  2  0
 17 20  2  0
 14  5  1  0
M  END
>  <original ID>  (26) 
None

>  <RMSD>  (26) 
2.113763

>  <submitter_name>  (26) 
None

>  <original SMILES>  (26) 
CC(=O)Nc1cccc(NC(C)=O)c1CNS(C)(=O)=O

>  <ref_pdb>  (26) 
Ax0310a

>  <method>  (26) 
None

>  <ddG>  (26) 
-11.966203

>  <submitter_email>  (26) 
None

>  <ref_url>  (26) 
None

>  <ref_mols>  (26) 
Ax0884a,Ax0719a

>  <tags>  (26) 
['base']

>  <generation_date>  (26) 
None

$$$$
CC(=O)Nc1ccccc1NC(=O)CO
     RDKit          3D

 15 15  0  0  0  0  0  0  0  0999 V2000
   34.3815   10.3390    3.0825 C   0  0  0  0  0  0  0  0  0  0  0  0
   34.0951   11.6781    3.7282 C   0  0  0  0  0  0  0  0  0  0  0  0
   34.9620   12.5409    3.8500 O   0  0  0  0  0  0  0  0  0  0  0  0
   32.7908   11.7911    4.2434 N   0  0  0  0  0  0  0  0  0  0  0  0
   32.6342   11.0914    5.4765 C   0  0  0  0  0  0  0  0  0  0  0  0
   31.7608   10.0099    5.5027 C   0  0  0  0  0  0  0  0  0  0  0  0
   32.0998    8.9249    6.2911 C   0  0  0  0  0  0  0  0  0  0  0  0
   33.3019    8.9378    6.9997 C   0  0  0  0  0  0  0  0  0  0  0  0
   34.0707   10.1043    7.0825 C   0  0  0  0  0  0  0  0  0  0  0  0
   33.6417   11.2405    6.4308 C   0  0  0  0  0  0  0  0  0  0  0  0
   34.1537   12.5328    6.6094 N   0  0  0  0  0  0  0  0  0  0  0  0
   34.9954   12.9906    7.5947 C   0  0  0  0  0  0  0  0  0  0  0  0
   35.4956   12.3248    8.4924 O   0  0  0  0  0  0  0  0  0  0  0  0
   35.2499   14.4961    7.4595 C   0  0  0  0  0  0  0  0  0  0  0  0
   34.9612   15.0047    6.1595 O   0  0  0  0  0  0  0  0  0  0  0  0
  1  2  1  0
  2  3  2  0
  2  4  1  0
  4  5  1  0
  5  6  2  0
  6  7  1  0
  7  8  2  0
  8  9  1  0
  9 10  2  0
 10 11  1  0
 11 12  1  0
 12 13  2  0
 12 14  1  0
 14 15  1  0
 10  5  1  0
M  END
>  <original ID>  (27) 
None

>  <RMSD>  (27) 
1.841426

>  <submitter_name>  (27) 
None

>  <original SMILES>  (27) 
CC(=O)Nc1ccccc1NC(=O)CO

>  <ref_pdb>  (27) 
Ax0310a

>  <method>  (27) 
None

>  <ddG>  (27) 
6.644649

>  <submitter_email>  (27) 
None

>  <ref_url>  (27) 
None

>  <ref_mols>  (27) 
Ax0732a,Ax0884a

>  <tags>  (27) 
['base']

>  <generation_date>  (27) 
None

$$$$
CC(=O)Nc1cccc(F)c1NC(=O)CO
     RDKit          3D

 16 16  0  0  0  0  0  0  0  0999 V2000
   31.7750   14.1609    7.9630 C   0  0  0  0  0  0  0  0  0  0  0  0
   31.2984   14.0895    6.5425 C   0  0  0  0  0  0  0  0  0  0  0  0
   30.6080   14.9636    6.0187 O   0  0  0  0  0  0  0  0  0  0  0  0
   31.5100   12.9788    5.7870 N   0  0  0  0  0  0  0  0  0  0  0  0
   32.1278   11.7697    6.1166 C   0  0  0  0  0  0  0  0  0  0  0  0
   31.3556   10.6138    6.0371 C   0  0  0  0  0  0  0  0  0  0  0  0
   31.8941    9.3522    6.2625 C   0  0  0  0  0  0  0  0  0  0  0  0
   33.2574    9.2394    6.4770 C   0  0  0  0  0  0  0  0  0  0  0  0
   34.0461   10.3896    6.4976 C   0  0  0  0  0  0  0  0  0  0  0  0
   35.3726   10.2280    6.5161 F   0  0  0  0  0  0  0  0  0  0  0  0
   33.4914   11.6676    6.3669 C   0  0  0  0  0  0  0  0  0  0  0  0
   34.2729   12.8369    6.3606 N   0  0  0  0  0  0  0  0  0  0  0  0
   35.1556   13.1291    7.3870 C   0  0  0  0  0  0  0  0  0  0  0  0
   35.4929   12.3718    8.2879 O   0  0  0  0  0  0  0  0  0  0  0  0
   35.6492   14.5742    7.3095 C   0  0  0  0  0  0  0  0  0  0  0  0
   34.7986   15.4139    6.5347 O   0  0  0  0  0  0  0  0  0  0  0  0
  1  2  1  0
  2  3  2  0
  2  4  1  0
  4  5  1  0
  5  6  2  0
  6  7  1  0
  7  8  2  0
  8  9  1  0
  9 10  1  0
  9 11  2  0
 11 12  1  0
 12 13  1  0
 13 14  2  0
 13 15  1  0
 15 16  1  0
 11  5  1  0
M  END
>  <original ID>  (28) 
None

>  <RMSD>  (28) 
1.848263

>  <submitter_name>  (28) 
None

>  <original SMILES>  (28) 
CC(=O)Nc1cccc(F)c1NC(=O)CO

>  <ref_pdb>  (28) 
Ax0310a

>  <method>  (28) 
None

>  <ddG>  (28) 
-16.989179

>  <submitter_email>  (28) 
None

>  <ref_url>  (28) 
None

>  <ref_mols>  (28) 
Ax0732a,Ax0884a

>  <tags>  (28) 
['base']

>  <generation_date>  (28) 
None

$$$$
CC(=O)Nc1cccc(OCC(=O)N(C)C)c1NC(=O)CO
     RDKit          3D

 22 22  0  0  0  0  0  0  0  0999 V2000
   31.7404   14.1701    7.9560 C   0  0  0  0  0  0  0  0  0  0  0  0
   31.2775   14.1979    6.5272 C   0  0  0  0  0  0  0  0  0  0  0  0
   30.5071   15.0355    6.0626 O   0  0  0  0  0  0  0  0  0  0  0  0
   31.6996   13.2409    5.6561 N   0  0  0  0  0  0  0  0  0  0  0  0
   32.0726   11.9400    6.0160 C   0  0  0  0  0  0  0  0  0  0  0  0
   31.1154   10.9388    5.9733 C   0  0  0  0  0  0  0  0  0  0  0  0
   31.4301    9.6287    6.3002 C   0  0  0  0  0  0  0  0  0  0  0  0
   32.7578    9.2908    6.4731 C   0  0  0  0  0  0  0  0  0  0  0  0
   33.7473   10.2665    6.3042 C   0  0  0  0  0  0  0  0  0  0  0  0
   35.0376    9.9112    6.0045 O   0  0  0  0  0  0  0  0  0  0  0  0
   35.1029    8.8338    5.0673 C   0  0  0  0  0  0  0  0  0  0  0  0
   34.2814    8.9025    3.7414 C   0  0  0  0  0  0  0  0  0  0  0  0
   33.8044    9.9586    3.3145 O   0  0  0  0  0  0  0  0  0  0  0  0
   34.1325    7.7166    3.0112 N   0  0  0  0  0  0  0  0  0  0  0  0
   34.2929    6.3926    3.5847 C   0  0  0  0  0  0  0  0  0  0  0  0
   33.3066    7.8135    1.8265 C   0  0  0  0  0  0  0  0  0  0  0  0
   33.4051   11.6195    6.2259 C   0  0  0  0  0  0  0  0  0  0  0  0
   34.3387   12.6755    6.2118 N   0  0  0  0  0  0  0  0  0  0  0  0
   35.1231   12.9259    7.3275 C   0  0  0  0  0  0  0  0  0  0  0  0
   35.3538   12.1491    8.2462 O   0  0  0  0  0  0  0  0  0  0  0  0
   35.6657   14.3583    7.3230 C   0  0  0  0  0  0  0  0  0  0  0  0
   34.8868   15.2609    6.5445 O   0  0  0  0  0  0  0  0  0  0  0  0
  1  2  1  0
  2  3  2  0
  2  4  1  0
  4  5  1  0
  5  6  2  0
  6  7  1  0
  7  8  2  0
  8  9  1  0
  9 10  1  0
 10 11  1  0
 11 12  1  0
 12 13  2  0
 12 14  1  0
 14 15  1  0
 14 16  1  0
  9 17  2  0
 17 18  1  0
 18 19  1  0
 19 20  2  0
 19 21  1  0
 21 22  1  0
 17  5  1  0
M  END
>  <original ID>  (29) 
None

>  <RMSD>  (29) 
1.731427

>  <submitter_name>  (29) 
None

>  <original SMILES>  (29) 
CC(=O)Nc1cccc(OCC(=O)N(C)C)c1NC(=O)CO

>  <ref_pdb>  (29) 
Ax0310a

>  <method>  (29) 
None

>  <ddG>  (29) 
-15.333602

>  <submitter_email>  (29) 
None

>  <ref_url>  (29) 
None

>  <ref_mols>  (29) 
Ax0732a,Ax0884a

>  <tags>  (29) 
['base']

>  <generation_date>  (29) 
None

$$$$
CC(=O)Nc1cc(C)cc(OCC(=O)N(C)C)c1
     RDKit          3D

 18 18  0  0  0  0  0  0  0  0999 V2000
   35.2093    9.2369    3.4953 C   0  0  0  0  0  0  0  0  0  0  0  0
   34.3109   10.4391    3.4397 C   0  0  0  0  0  0  0  0  0  0  0  0
   34.6931   11.5314    3.0218 O   0  0  0  0  0  0  0  0  0  0  0  0
   33.0044   10.2615    3.8909 N   0  0  0  0  0  0  0  0  0  0  0  0
   32.9118   10.2506    5.3108 C   0  0  0  0  0  0  0  0  0  0  0  0
   33.5000    9.2179    6.0255 C   0  0  0  0  0  0  0  0  0  0  0  0
   34.3037    9.5522    7.1008 C   0  0  0  0  0  0  0  0  0  0  0  0
   35.1016    8.4996    7.7938 C   0  0  0  0  0  0  0  0  0  0  0  0
   34.4298   10.9053    7.4466 C   0  0  0  0  0  0  0  0  0  0  0  0
   33.5668   11.8586    6.8970 C   0  0  0  0  0  0  0  0  0  0  0  0
   33.6797   13.1205    7.3702 O   0  0  0  0  0  0  0  0  0  0  0  0
   32.5949   14.0152    7.1304 C   0  0  0  0  0  0  0  0  0  0  0  0
   33.2143   15.3865    7.2173 C   0  0  0  0  0  0  0  0  0  0  0  0
   32.9296   16.1306    8.1570 O   0  0  0  0  0  0  0  0  0  0  0  0
   34.1213   15.7577    6.2199 N   0  0  0  0  0  0  0  0  0  0  0  0
   34.9970   16.8670    6.5300 C   0  0  0  0  0  0  0  0  0  0  0  0
   34.5620   14.8821    5.1417 C   0  0  0  0  0  0  0  0  0  0  0  0
   32.7306   11.5040    5.8663 C   0  0  0  0  0  0  0  0  0  0  0  0
  1  2  1  0
  2  3  2  0
  2  4  1  0
  4  5  1  0
  5  6  2  0
  6  7  1  0
  7  8  1  0
  7  9  2  0
  9 10  1  0
 10 11  1  0
 11 12  1  0
 12 13  1  0
 13 14  2  0
 13 15  1  0
 15 16  1  0
 15 17  1  0
 10 18  2  0
 18  5  1  0
M  END
>  <original ID>  (30) 
None

>  <RMSD>  (30) 
2.068141

>  <submitter_name>  (30) 
None

>  <original SMILES>  (30) 
CC(=O)Nc1cc(C)cc(OCC(=O)N(C)C)c1

>  <ref_pdb>  (30) 
Ax0310a

>  <method>  (30) 
None

>  <ddG>  (30) 
18.875897

>  <submitter_email>  (30) 
None

>  <ref_url>  (30) 
None

>  <ref_mols>  (30) 
Ax0884a,Ax0739a

>  <tags>  (30) 
['base']

>  <generation_date>  (30) 
None

$$$$
CC(=O)Nc1cc(OCC(=O)N2CCOCC2)ncc1C
     RDKit          3D

 21 22  0  0  0  0  0  0  0  0999 V2000
   35.2728    9.0023    3.9971 C   0  0  0  0  0  0  0  0  0  0  0  0
   34.3157   10.1505    3.8880 C   0  0  0  0  0  0  0  0  0  0  0  0
   34.5744   11.1736    3.2570 O   0  0  0  0  0  0  0  0  0  0  0  0
   33.1124    9.9989    4.5727 N   0  0  0  0  0  0  0  0  0  0  0  0
   33.2236   10.3946    5.9355 C   0  0  0  0  0  0  0  0  0  0  0  0
   32.9374   11.7152    6.1805 C   0  0  0  0  0  0  0  0  0  0  0  0
   33.7193   12.3340    7.1145 C   0  0  0  0  0  0  0  0  0  0  0  0
   33.6646   13.6490    7.3731 O   0  0  0  0  0  0  0  0  0  0  0  0
   32.5390   14.3728    6.8978 C   0  0  0  0  0  0  0  0  0  0  0  0
   33.0994   15.7615    6.9585 C   0  0  0  0  0  0  0  0  0  0  0  0
   32.7171   16.5394    7.8326 O   0  0  0  0  0  0  0  0  0  0  0  0
   34.0890   16.0992    6.0379 N   0  0  0  0  0  0  0  0  0  0  0  0
   34.9948   17.1870    6.3925 C   0  0  0  0  0  0  0  0  0  0  0  0
   36.3751   16.6109    6.7392 C   0  0  0  0  0  0  0  0  0  0  0  0
   36.9007   15.8646    5.6250 O   0  0  0  0  0  0  0  0  0  0  0  0
   36.0419   14.7513    5.3186 C   0  0  0  0  0  0  0  0  0  0  0  0
   34.6257   15.2345    4.9740 C   0  0  0  0  0  0  0  0  0  0  0  0
   34.6957   11.7100    7.8016 N   0  0  0  0  0  0  0  0  0  0  0  0
   34.7867   10.3775    7.6954 C   0  0  0  0  0  0  0  0  0  0  0  0
   33.9842    9.6647    6.8361 C   0  0  0  0  0  0  0  0  0  0  0  0
   33.7473    8.2230    7.0700 C   0  0  0  0  0  0  0  0  0  0  0  0
  1  2  1  0
  2  3  2  0
  2  4  1  0
  4  5  1  0
  5  6  2  0
  6  7  1  0
  7  8  1  0
  8  9  1  0
  9 10  1  0
 10 11  2  0
 10 12  1  0
 12 13  1  0
 13 14  1  0
 14 15  1  0
 15 16  1  0
 16 17  1  0
  7 18  2  0
 18 19  1  0
 19 20  2  0
 20 21  1  0
 20  5  1  0
 17 12  1  0
M  END
>  <original ID>  (31) 
None

>  <RMSD>  (31) 
1.959659

>  <submitter_name>  (31) 
None

>  <original SMILES>  (31) 
CC(=O)Nc1cc(OCC(=O)N2CCOCC2)ncc1C

>  <ref_pdb>  (31) 
Ax0310a

>  <method>  (31) 
None

>  <ddG>  (31) 
12.434233

>  <submitter_email>  (31) 
None

>  <ref_url>  (31) 
None

>  <ref_mols>  (31) 
Ax0884a,Ax0739a

>  <tags>  (31) 
['base']

>  <generation_date>  (31) 
None

$$$$
CC(=O)Nc1cc(C)cc(OCC(=O)N2CCOCC2)c1
     RDKit          3D

 21 22  0  0  0  0  0  0  0  0999 V2000
   35.2035    9.2337    3.5107 C   0  0  0  0  0  0  0  0  0  0  0  0
   34.3218   10.4487    3.4529 C   0  0  0  0  0  0  0  0  0  0  0  0
   34.7383   11.5461    3.0840 O   0  0  0  0  0  0  0  0  0  0  0  0
   32.9955   10.2675    3.8440 N   0  0  0  0  0  0  0  0  0  0  0  0
   32.8397   10.2437    5.2606 C   0  0  0  0  0  0  0  0  0  0  0  0
   33.4180    9.2110    5.9840 C   0  0  0  0  0  0  0  0  0  0  0  0
   34.2285    9.5483    7.0527 C   0  0  0  0  0  0  0  0  0  0  0  0
   35.0271    8.4970    7.7467 C   0  0  0  0  0  0  0  0  0  0  0  0
   34.3643   10.9033    7.3853 C   0  0  0  0  0  0  0  0  0  0  0  0
   33.5002   11.8551    6.8350 C   0  0  0  0  0  0  0  0  0  0  0  0
   33.6316   13.1219    7.2904 O   0  0  0  0  0  0  0  0  0  0  0  0
   32.5611   14.0263    7.0254 C   0  0  0  0  0  0  0  0  0  0  0  0
   33.1923   15.3805    7.2054 C   0  0  0  0  0  0  0  0  0  0  0  0
   32.9231   16.0539    8.2009 O   0  0  0  0  0  0  0  0  0  0  0  0
   34.0903   15.8139    6.2341 N   0  0  0  0  0  0  0  0  0  0  0  0
   35.0020   16.8972    6.5882 C   0  0  0  0  0  0  0  0  0  0  0  0
   36.4085   16.3248    6.8080 C   0  0  0  0  0  0  0  0  0  0  0  0
   36.8661   15.6408    5.6253 O   0  0  0  0  0  0  0  0  0  0  0  0
   35.9914   14.5425    5.3026 C   0  0  0  0  0  0  0  0  0  0  0  0
   34.5558   15.0352    5.0763 C   0  0  0  0  0  0  0  0  0  0  0  0
   32.6503   11.4955    5.8167 C   0  0  0  0  0  0  0  0  0  0  0  0
  1  2  1  0
  2  3  2  0
  2  4  1  0
  4  5  1  0
  5  6  2  0
  6  7  1  0
  7  8  1  0
  7  9  2  0
  9 10  1  0
 10 11  1  0
 11 12  1  0
 12 13  1  0
 13 14  2  0
 13 15  1  0
 15 16  1  0
 16 17  1  0
 17 18  1  0
 18 19  1  0
 19 20  1  0
 10 21  2  0
 21  5  1  0
 20 15  1  0
M  END
>  <original ID>  (32) 
None

>  <RMSD>  (32) 
2.072514

>  <submitter_name>  (32) 
None

>  <original SMILES>  (32) 
CC(=O)Nc1cc(C)cc(OCC(=O)N2CCOCC2)c1

>  <ref_pdb>  (32) 
Ax0310a

>  <method>  (32) 
None

>  <ddG>  (32) 
6.42504

>  <submitter_email>  (32) 
None

>  <ref_url>  (32) 
None

>  <ref_mols>  (32) 
Ax0884a,Ax0739a

>  <tags>  (32) 
['base']

>  <generation_date>  (32) 
None

$$$$
CC(=O)Nc1cccc(OCC(=O)N2CCOCC2)c1
     RDKit          3D

 20 21  0  0  0  0  0  0  0  0999 V2000
   36.1317    8.9605    4.1861 C   0  0  0  0  0  0  0  0  0  0  0  0
   34.9916    9.8979    3.9610 C   0  0  0  0  0  0  0  0  0  0  0  0
   35.0755   10.9053    3.2637 O   0  0  0  0  0  0  0  0  0  0  0  0
   33.8246    9.5295    4.6091 N   0  0  0  0  0  0  0  0  0  0  0  0
   33.6497   10.2185    5.8318 C   0  0  0  0  0  0  0  0  0  0  0  0
   34.5860   10.1171    6.8551 C   0  0  0  0  0  0  0  0  0  0  0  0
   34.7461   11.1937    7.7132 C   0  0  0  0  0  0  0  0  0  0  0  0
   33.9482   12.3311    7.5554 C   0  0  0  0  0  0  0  0  0  0  0  0
   32.9398   12.3430    6.5968 C   0  0  0  0  0  0  0  0  0  0  0  0
   32.1659   13.3696    6.1846 O   0  0  0  0  0  0  0  0  0  0  0  0
   31.9739   14.4607    7.0277 C   0  0  0  0  0  0  0  0  0  0  0  0
   33.1304   15.3670    7.4086 C   0  0  0  0  0  0  0  0  0  0  0  0
   33.1999   15.7432    8.5830 O   0  0  0  0  0  0  0  0  0  0  0  0
   34.0628   15.7614    6.4705 N   0  0  0  0  0  0  0  0  0  0  0  0
   35.2338   16.5145    6.9188 C   0  0  0  0  0  0  0  0  0  0  0  0
   36.5088   15.7270    6.6062 C   0  0  0  0  0  0  0  0  0  0  0  0
   36.5880   15.4308    5.2004 O   0  0  0  0  0  0  0  0  0  0  0  0
   35.4612   14.6355    4.7825 C   0  0  0  0  0  0  0  0  0  0  0  0
   34.1386   15.3682    5.0592 C   0  0  0  0  0  0  0  0  0  0  0  0
   32.7290   11.2451    5.7977 C   0  0  0  0  0  0  0  0  0  0  0  0
  1  2  1  0
  2  3  2  0
  2  4  1  0
  4  5  1  0
  5  6  2  0
  6  7  1  0
  7  8  2  0
  8  9  1  0
  9 10  1  0
 10 11  1  0
 11 12  1  0
 12 13  2  0
 12 14  1  0
 14 15  1  0
 15 16  1  0
 16 17  1  0
 17 18  1  0
 18 19  1  0
  9 20  2  0
 20  5  1  0
 19 14  1  0
M  END
>  <original ID>  (33) 
None

>  <RMSD>  (33) 
2.314241

>  <submitter_name>  (33) 
None

>  <original SMILES>  (33) 
CC(=O)Nc1cccc(OCC(=O)N2CCOCC2)c1

>  <ref_pdb>  (33) 
Ax0310a

>  <method>  (33) 
None

>  <ddG>  (33) 
-2.652111

>  <submitter_email>  (33) 
None

>  <ref_url>  (33) 
None

>  <ref_mols>  (33) 
Ax0884a,Ax0739a

>  <tags>  (33) 
['base']

>  <generation_date>  (33) 
None

$$$$
CC(=O)Nc1cc(OCC(=O)N2CCOCC2)ccc1C
     RDKit          3D

 21 22  0  0  0  0  0  0  0  0999 V2000
   34.8607    9.5598    3.8534 C   0  0  0  0  0  0  0  0  0  0  0  0
   35.6442   10.5173    4.7157 C   0  0  0  0  0  0  0  0  0  0  0  0
   36.4721   11.2995    4.2517 O   0  0  0  0  0  0  0  0  0  0  0  0
   35.3729   10.5200    6.0731 N   0  0  0  0  0  0  0  0  0  0  0  0
   34.0200   10.6948    6.4065 C   0  0  0  0  0  0  0  0  0  0  0  0
   33.5187   11.9666    6.2151 C   0  0  0  0  0  0  0  0  0  0  0  0
   32.1609   12.1350    6.1141 C   0  0  0  0  0  0  0  0  0  0  0  0
   31.5260   13.3035    5.8579 O   0  0  0  0  0  0  0  0  0  0  0  0
   32.3198   14.4008    5.4617 C   0  0  0  0  0  0  0  0  0  0  0  0
   33.1129   15.0740    6.5858 C   0  0  0  0  0  0  0  0  0  0  0  0
   32.8347   14.8838    7.7701 O   0  0  0  0  0  0  0  0  0  0  0  0
   34.1777   15.8865    6.2102 N   0  0  0  0  0  0  0  0  0  0  0  0
   35.0953   16.3472    7.2537 C   0  0  0  0  0  0  0  0  0  0  0  0
   36.4070   15.5578    7.1586 C   0  0  0  0  0  0  0  0  0  0  0  0
   36.9840   15.6772    5.8424 O   0  0  0  0  0  0  0  0  0  0  0  0
   36.0830   15.1941    4.8298 C   0  0  0  0  0  0  0  0  0  0  0  0
   34.7639   15.9779    4.8683 C   0  0  0  0  0  0  0  0  0  0  0  0
   31.3314   11.0300    6.2214 C   0  0  0  0  0  0  0  0  0  0  0  0
   31.8173    9.7856    6.5760 C   0  0  0  0  0  0  0  0  0  0  0  0
   33.1870    9.6254    6.7264 C   0  0  0  0  0  0  0  0  0  0  0  0
   33.7271    8.3637    7.2929 C   0  0  0  0  0  0  0  0  0  0  0  0
  1  2  1  0
  2  3  2  0
  2  4  1  0
  4  5  1  0
  5  6  2  0
  6  7  1  0
  7  8  1  0
  8  9  1  0
  9 10  1  0
 10 11  2  0
 10 12  1  0
 12 13  1  0
 13 14  1  0
 14 15  1  0
 15 16  1  0
 16 17  1  0
  7 18  2  0
 18 19  1  0
 19 20  2  0
 20 21  1  0
 20  5  1  0
 17 12  1  0
M  END
>  <original ID>  (34) 
None

>  <RMSD>  (34) 
2.081436

>  <submitter_name>  (34) 
None

>  <original SMILES>  (34) 
CC(=O)Nc1cc(OCC(=O)N2CCOCC2)ccc1C

>  <ref_pdb>  (34) 
Ax0310a

>  <method>  (34) 
None

>  <ddG>  (34) 
-0.892451

>  <submitter_email>  (34) 
None

>  <ref_url>  (34) 
None

>  <ref_mols>  (34) 
Ax0884a,Ax0739a

>  <tags>  (34) 
['base']

>  <generation_date>  (34) 
None

$$$$
CC(=O)Nc1cc(OCC(=O)N2CCOCC2)ccc1F
     RDKit          3D

 21 22  0  0  0  0  0  0  0  0999 V2000
   36.1503    8.7250    4.2120 C   0  0  0  0  0  0  0  0  0  0  0  0
   35.6209    9.9445    4.9060 C   0  0  0  0  0  0  0  0  0  0  0  0
   35.8446   11.0642    4.4562 O   0  0  0  0  0  0  0  0  0  0  0  0
   34.8173    9.5957    5.9884 N   0  0  0  0  0  0  0  0  0  0  0  0
   33.6680   10.3236    6.3155 C   0  0  0  0  0  0  0  0  0  0  0  0
   33.5811   11.6607    5.9860 C   0  0  0  0  0  0  0  0  0  0  0  0
   32.3387   12.2123    5.8097 C   0  0  0  0  0  0  0  0  0  0  0  0
   32.2736   13.4204    5.1983 O   0  0  0  0  0  0  0  0  0  0  0  0
   31.9542   14.4639    6.0978 C   0  0  0  0  0  0  0  0  0  0  0  0
   33.0653   14.8898    7.0475 C   0  0  0  0  0  0  0  0  0  0  0  0
   32.8554   14.9148    8.2621 O   0  0  0  0  0  0  0  0  0  0  0  0
   34.2883   15.2534    6.5030 N   0  0  0  0  0  0  0  0  0  0  0  0
   35.3100   15.7902    7.4009 C   0  0  0  0  0  0  0  0  0  0  0  0
   36.7168   15.4193    6.9294 C   0  0  0  0  0  0  0  0  0  0  0  0
   36.9240   15.8009    5.5594 O   0  0  0  0  0  0  0  0  0  0  0  0
   35.9870   15.1184    4.7113 C   0  0  0  0  0  0  0  0  0  0  0  0
   34.5484   15.4958    5.0788 C   0  0  0  0  0  0  0  0  0  0  0  0
   31.2008   11.4530    6.0086 C   0  0  0  0  0  0  0  0  0  0  0  0
   31.2867   10.1987    6.5937 C   0  0  0  0  0  0  0  0  0  0  0  0
   32.5325    9.6374    6.7592 C   0  0  0  0  0  0  0  0  0  0  0  0
   32.6149    8.4418    7.3568 F   0  0  0  0  0  0  0  0  0  0  0  0
  1  2  1  0
  2  3  2  0
  2  4  1  0
  4  5  1  0
  5  6  2  0
  6  7  1  0
  7  8  1  0
  8  9  1  0
  9 10  1  0
 10 11  2  0
 10 12  1  0
 12 13  1  0
 13 14  1  0
 14 15  1  0
 15 16  1  0
 16 17  1  0
  7 18  2  0
 18 19  1  0
 19 20  2  0
 20 21  1  0
 20  5  1  0
 17 12  1  0
M  END
>  <original ID>  (35) 
None

>  <RMSD>  (35) 
1.920437

>  <submitter_name>  (35) 
None

>  <original SMILES>  (35) 
CC(=O)Nc1cc(OCC(=O)N2CCOCC2)ccc1F

>  <ref_pdb>  (35) 
Ax0310a

>  <method>  (35) 
None

>  <ddG>  (35) 
-19.260455

>  <submitter_email>  (35) 
None

>  <ref_url>  (35) 
None

>  <ref_mols>  (35) 
Ax0884a,Ax0739a

>  <tags>  (35) 
['base']

>  <generation_date>  (35) 
None

$$$$
CC(=O)Nc1ccc(C)c(OCC(=O)N2CCOCC2)c1
     RDKit          3D

 21 22  0  0  0  0  0  0  0  0999 V2000
   35.1281    9.1870    3.5826 C   0  0  0  0  0  0  0  0  0  0  0  0
   34.1994   10.3673    3.5565 C   0  0  0  0  0  0  0  0  0  0  0  0
   34.5775   11.4878    3.2147 O   0  0  0  0  0  0  0  0  0  0  0  0
   32.8763   10.1194    3.9304 N   0  0  0  0  0  0  0  0  0  0  0  0
   32.6898   10.0270    5.3481 C   0  0  0  0  0  0  0  0  0  0  0  0
   33.3090    8.9914    6.0352 C   0  0  0  0  0  0  0  0  0  0  0  0
   34.2106    9.3356    7.0210 C   0  0  0  0  0  0  0  0  0  0  0  0
   34.4099   10.6934    7.3065 C   0  0  0  0  0  0  0  0  0  0  0  0
   35.5754   11.0861    8.1522 C   0  0  0  0  0  0  0  0  0  0  0  0
   33.5021   11.6538    6.8162 C   0  0  0  0  0  0  0  0  0  0  0  0
   33.6989   12.9503    7.1711 O   0  0  0  0  0  0  0  0  0  0  0  0
   32.6374   13.8668    6.9047 C   0  0  0  0  0  0  0  0  0  0  0  0
   33.2392   15.2261    7.1469 C   0  0  0  0  0  0  0  0  0  0  0  0
   32.9454   15.8567    8.1633 O   0  0  0  0  0  0  0  0  0  0  0  0
   34.1353   15.7130    6.2000 N   0  0  0  0  0  0  0  0  0  0  0  0
   35.0062   16.8161    6.5929 C   0  0  0  0  0  0  0  0  0  0  0  0
   36.4229   16.2802    6.8364 C   0  0  0  0  0  0  0  0  0  0  0  0
   36.9264   15.6277    5.6543 O   0  0  0  0  0  0  0  0  0  0  0  0
   36.0898   14.5116    5.2936 C   0  0  0  0  0  0  0  0  0  0  0  0
   34.6478   14.9682    5.0393 C   0  0  0  0  0  0  0  0  0  0  0  0
   32.5170   11.2661    5.9359 C   0  0  0  0  0  0  0  0  0  0  0  0
  1  2  1  0
  2  3  2  0
  2  4  1  0
  4  5  1  0
  5  6  2  0
  6  7  1  0
  7  8  2  0
  8  9  1  0
  8 10  1  0
 10 11  1  0
 11 12  1  0
 12 13  1  0
 13 14  2  0
 13 15  1  0
 15 16  1  0
 16 17  1  0
 17 18  1  0
 18 19  1  0
 19 20  1  0
 10 21  2  0
 21  5  1  0
 20 15  1  0
M  END
>  <original ID>  (36) 
None

>  <RMSD>  (36) 
1.829141

>  <submitter_name>  (36) 
None

>  <original SMILES>  (36) 
CC(=O)Nc1ccc(C)c(OCC(=O)N2CCOCC2)c1

>  <ref_pdb>  (36) 
Ax0310a

>  <method>  (36) 
None

>  <ddG>  (36) 
25.017914

>  <submitter_email>  (36) 
None

>  <ref_url>  (36) 
None

>  <ref_mols>  (36) 
Ax0884a,Ax0739a

>  <tags>  (36) 
['base']

>  <generation_date>  (36) 
None

$$$$
CC(=O)Nc1cc(OCC(=O)N2CCOCC2)c(C)cc1C
     RDKit          3D

 22 23  0  0  0  0  0  0  0  0999 V2000
   34.7501    9.1334    3.7790 C   0  0  0  0  0  0  0  0  0  0  0  0
   34.1118   10.4885    3.6575 C   0  0  0  0  0  0  0  0  0  0  0  0
   34.7381   11.4750    3.2691 O   0  0  0  0  0  0  0  0  0  0  0  0
   32.7525   10.5664    3.9606 N   0  0  0  0  0  0  0  0  0  0  0  0
   32.4405   10.6341    5.3603 C   0  0  0  0  0  0  0  0  0  0  0  0
   32.5196   11.9092    5.8497 C   0  0  0  0  0  0  0  0  0  0  0  0
   33.5210   12.1629    6.7686 C   0  0  0  0  0  0  0  0  0  0  0  0
   33.7857   13.4204    7.1863 O   0  0  0  0  0  0  0  0  0  0  0  0
   32.6676   14.3091    7.1711 C   0  0  0  0  0  0  0  0  0  0  0  0
   33.3017   15.6555    7.3426 C   0  0  0  0  0  0  0  0  0  0  0  0
   33.0678   16.3115    8.3578 O   0  0  0  0  0  0  0  0  0  0  0  0
   34.1561   16.1040    6.3391 N   0  0  0  0  0  0  0  0  0  0  0  0
   35.1328   17.1264    6.6929 C   0  0  0  0  0  0  0  0  0  0  0  0
   36.5241   16.4846    6.7799 C   0  0  0  0  0  0  0  0  0  0  0  0
   36.8751   15.8663    5.5266 O   0  0  0  0  0  0  0  0  0  0  0  0
   35.9379   14.8245    5.1932 C   0  0  0  0  0  0  0  0  0  0  0  0
   34.5092   15.3807    5.1071 C   0  0  0  0  0  0  0  0  0  0  0  0
   34.3664   11.1285    7.2013 C   0  0  0  0  0  0  0  0  0  0  0  0
   35.5783   11.3740    8.0319 C   0  0  0  0  0  0  0  0  0  0  0  0
   33.9622    9.8186    6.9795 C   0  0  0  0  0  0  0  0  0  0  0  0
   32.8435    9.6181    6.1955 C   0  0  0  0  0  0  0  0  0  0  0  0
   32.0508    8.3827    6.2981 C   0  0  0  0  0  0  0  0  0  0  0  0
  1  2  1  0
  2  3  2  0
  2  4  1  0
  4  5  1  0
  5  6  2  0
  6  7  1  0
  7  8  1  0
  8  9  1  0
  9 10  1  0
 10 11  2  0
 10 12  1  0
 12 13  1  0
 13 14  1  0
 14 15  1  0
 15 16  1  0
 16 17  1  0
  7 18  2  0
 18 19  1  0
 18 20  1  0
 20 21  2  0
 21 22  1  0
 21  5  1  0
 17 12  1  0
M  END
>  <original ID>  (37) 
None

>  <RMSD>  (37) 
1.883096

>  <submitter_name>  (37) 
None

>  <original SMILES>  (37) 
CC(=O)Nc1cc(OCC(=O)N2CCOCC2)c(C)cc1C

>  <ref_pdb>  (37) 
Ax0310a

>  <method>  (37) 
None

>  <ddG>  (37) 
21.620731

>  <submitter_email>  (37) 
None

>  <ref_url>  (37) 
None

>  <ref_mols>  (37) 
Ax0884a,Ax0739a

>  <tags>  (37) 
['base']

>  <generation_date>  (37) 
None

$$$$
CC(=O)Nc1cncc(OCC(=O)N2CCOCC2)c1
     RDKit          3D

 20 21  0  0  0  0  0  0  0  0999 V2000
   35.3905    9.0023    3.6510 C   0  0  0  0  0  0  0  0  0  0  0  0
   34.4969   10.2007    3.7506 C   0  0  0  0  0  0  0  0  0  0  0  0
   34.8110   11.3112    3.3290 O   0  0  0  0  0  0  0  0  0  0  0  0
   33.2850    9.9734    4.3936 N   0  0  0  0  0  0  0  0  0  0  0  0
   33.3836   10.2122    5.7932 C   0  0  0  0  0  0  0  0  0  0  0  0
   34.2464    9.4761    6.5965 C   0  0  0  0  0  0  0  0  0  0  0  0
   34.9202   10.0272    7.6175 N   0  0  0  0  0  0  0  0  0  0  0  0
   34.7001   11.3454    7.8287 C   0  0  0  0  0  0  0  0  0  0  0  0
   33.7153   12.0851    7.1754 C   0  0  0  0  0  0  0  0  0  0  0  0
   33.5938   13.3795    7.5246 O   0  0  0  0  0  0  0  0  0  0  0  0
   32.5364   14.1484    6.9554 C   0  0  0  0  0  0  0  0  0  0  0  0
   33.1226   15.5318    7.0053 C   0  0  0  0  0  0  0  0  0  0  0  0
   32.7949   16.3031    7.9076 O   0  0  0  0  0  0  0  0  0  0  0  0
   34.0785   15.8700    6.0523 N   0  0  0  0  0  0  0  0  0  0  0  0
   34.9623   16.9933    6.3500 C   0  0  0  0  0  0  0  0  0  0  0  0
   36.3599   16.4618    6.6940 C   0  0  0  0  0  0  0  0  0  0  0  0
   36.8851   15.6845    5.6013 O   0  0  0  0  0  0  0  0  0  0  0  0
   36.0410   14.5498    5.3327 C   0  0  0  0  0  0  0  0  0  0  0  0
   34.6105   14.9935    4.9973 C   0  0  0  0  0  0  0  0  0  0  0  0
   32.9691   11.4660    6.2014 C   0  0  0  0  0  0  0  0  0  0  0  0
  1  2  1  0
  2  3  2  0
  2  4  1  0
  4  5  1  0
  5  6  2  0
  6  7  1  0
  7  8  2  0
  8  9  1  0
  9 10  1  0
 10 11  1  0
 11 12  1  0
 12 13  2  0
 12 14  1  0
 14 15  1  0
 15 16  1  0
 16 17  1  0
 17 18  1  0
 18 19  1  0
  9 20  2  0
 20  5  1  0
 19 14  1  0
M  END
>  <original ID>  (38) 
None

>  <RMSD>  (38) 
2.029096

>  <submitter_name>  (38) 
None

>  <original SMILES>  (38) 
CC(=O)Nc1cncc(OCC(=O)N2CCOCC2)c1

>  <ref_pdb>  (38) 
Ax0310a

>  <method>  (38) 
None

>  <ddG>  (38) 
-51.86925

>  <submitter_email>  (38) 
None

>  <ref_url>  (38) 
None

>  <ref_mols>  (38) 
Ax0884a,Ax0739a

>  <tags>  (38) 
['base']

>  <generation_date>  (38) 
None

$$$$
CC(=O)Nc1ccnc(OCC(=O)N2CCOCC2)c1
     RDKit          3D

 20 21  0  0  0  0  0  0  0  0999 V2000
   35.4203    9.0572    3.6673 C   0  0  0  0  0  0  0  0  0  0  0  0
   34.4164   10.1703    3.6574 C   0  0  0  0  0  0  0  0  0  0  0  0
   34.6433   11.2667    3.1501 O   0  0  0  0  0  0  0  0  0  0  0  0
   33.2096    9.8907    4.2911 N   0  0  0  0  0  0  0  0  0  0  0  0
   33.2899   10.1030    5.6943 C   0  0  0  0  0  0  0  0  0  0  0  0
   34.0636    9.2690    6.4882 C   0  0  0  0  0  0  0  0  0  0  0  0
   34.7480    9.8756    7.5081 C   0  0  0  0  0  0  0  0  0  0  0  0
   34.6479   11.1990    7.7570 N   0  0  0  0  0  0  0  0  0  0  0  0
   33.7177   11.9139    7.0875 C   0  0  0  0  0  0  0  0  0  0  0  0
   33.7042   13.2219    7.4176 O   0  0  0  0  0  0  0  0  0  0  0  0
   32.5967   14.0099    6.9989 C   0  0  0  0  0  0  0  0  0  0  0  0
   33.1502   15.4065    7.0891 C   0  0  0  0  0  0  0  0  0  0  0  0
   32.8046   16.1456    8.0115 O   0  0  0  0  0  0  0  0  0  0  0  0
   34.0759   15.8026    6.1280 N   0  0  0  0  0  0  0  0  0  0  0  0
   34.9363   16.9386    6.4460 C   0  0  0  0  0  0  0  0  0  0  0  0
   36.3533   16.4347    6.7519 C   0  0  0  0  0  0  0  0  0  0  0  0
   36.8787   15.7005    5.6292 O   0  0  0  0  0  0  0  0  0  0  0  0
   36.0602   14.5482    5.3538 C   0  0  0  0  0  0  0  0  0  0  0  0
   34.6161   14.9665    5.0452 C   0  0  0  0  0  0  0  0  0  0  0  0
   32.9427   11.3761    6.1011 C   0  0  0  0  0  0  0  0  0  0  0  0
  1  2  1  0
  2  3  2  0
  2  4  1  0
  4  5  1  0
  5  6  2  0
  6  7  1  0
  7  8  2  0
  8  9  1  0
  9 10  1  0
 10 11  1  0
 11 12  1  0
 12 13  2  0
 12 14  1  0
 14 15  1  0
 15 16  1  0
 16 17  1  0
 17 18  1  0
 18 19  1  0
  9 20  2  0
 20  5  1  0
 19 14  1  0
M  END
>  <original ID>  (39) 
None

>  <RMSD>  (39) 
2.022579

>  <submitter_name>  (39) 
None

>  <original SMILES>  (39) 
CC(=O)Nc1ccnc(OCC(=O)N2CCOCC2)c1

>  <ref_pdb>  (39) 
Ax0310a

>  <method>  (39) 
None

>  <ddG>  (39) 
6.140215

>  <submitter_email>  (39) 
None

>  <ref_url>  (39) 
None

>  <ref_mols>  (39) 
Ax0884a,Ax0739a

>  <tags>  (39) 
['base']

>  <generation_date>  (39) 
None

$$$$
Cc1ccc(NC(=O)[C@@H]2CCCO2)cc1O[C@@H]1CCN(C)C1=O
     RDKit          3D

 23 25  0  0  0  0  0  0  0  0999 V2000
   31.3034    9.4706    6.8311 C   0  0  0  0  0  0  0  0  0  0  0  0
   32.4034   10.1513    6.0990 C   0  0  0  0  0  0  0  0  0  0  0  0
   33.0107    9.4212    5.0816 C   0  0  0  0  0  0  0  0  0  0  0  0
   33.9662   10.0380    4.2968 C   0  0  0  0  0  0  0  0  0  0  0  0
   34.3971   11.3068    4.6488 C   0  0  0  0  0  0  0  0  0  0  0  0
   34.9434   12.1409    3.6764 N   0  0  0  0  0  0  0  0  0  0  0  0
   34.6135   13.4991    3.6309 C   0  0  0  0  0  0  0  0  0  0  0  0
   34.1410   14.1902    4.5287 O   0  0  0  0  0  0  0  0  0  0  0  0
   34.8466   14.0756    2.2436 C   0  0  2  0  0  0  0  0  0  0  0  0
   33.6132   14.8386    1.7786 C   0  0  0  0  0  0  0  0  0  0  0  0
   33.5561   14.5099    0.3117 C   0  0  0  0  0  0  0  0  0  0  0  0
   34.0556   13.0870    0.2938 C   0  0  0  0  0  0  0  0  0  0  0  0
   35.0832   13.0175    1.2864 O   0  0  0  0  0  0  0  0  0  0  0  0
   34.0622   11.8581    5.8572 C   0  0  0  0  0  0  0  0  0  0  0  0
   32.9037   11.4242    6.4223 C   0  0  0  0  0  0  0  0  0  0  0  0
   32.1493   12.3120    7.1008 O   0  0  0  0  0  0  0  0  0  0  0  0
   32.6917   13.4877    7.6935 C   0  0  2  0  0  0  0  0  0  0  0  0
   31.3740   14.0623    8.1198 C   0  0  0  0  0  0  0  0  0  0  0  0
   31.0176   14.7222    6.7677 C   0  0  0  0  0  0  0  0  0  0  0  0
   32.0971   15.6299    6.6433 N   0  0  0  0  0  0  0  0  0  0  0  0
   31.8691   17.0051    7.0820 C   0  0  0  0  0  0  0  0  0  0  0  0
   33.1637   14.9389    7.2647 C   0  0  0  0  0  0  0  0  0  0  0  0
   34.1604   15.4893    7.7141 O   0  0  0  0  0  0  0  0  0  0  0  0
  1  2  1  0
  2  3  2  0
  3  4  1  0
  4  5  2  0
  5  6  1  0
  6  7  1  0
  7  8  2  0
  9  7  1  1
  9 10  1  0
 10 11  1  0
 11 12  1  0
 12 13  1  0
  5 14  1  0
 14 15  2  0
 15 16  1  0
 17 16  1  6
 17 18  1  0
 18 19  1  0
 19 20  1  0
 20 21  1  0
 20 22  1  0
 22 23  2  0
 15  2  1  0
 22 17  1  0
 13  9  1  0
M  END
>  <original ID>  (40) 
None

>  <RMSD>  (40) 
2.912061

>  <submitter_name>  (40) 
None

>  <original SMILES>  (40) 
Cc1ccc(NC(=O)[C@@H]2CCCO2)cc1O[C@@H]1CCN(C)C1=O

>  <ref_pdb>  (40) 
Ax0310a

>  <method>  (40) 
None

>  <ddG>  (40) 
10.501298

>  <submitter_email>  (40) 
None

>  <ref_url>  (40) 
None

>  <ref_mols>  (40) 
Ax0528a,Ax0416a

>  <tags>  (40) 
['base']

>  <generation_date>  (40) 
None

$$$$
Cc1ccc(NC(=O)[C@H]2CCCO2)cc1O[C@@H]1CCN(C)C1=O
     RDKit          3D

 23 25  0  0  0  0  0  0  0  0999 V2000
   31.3409    9.4961    6.8479 C   0  0  0  0  0  0  0  0  0  0  0  0
   32.5120   10.1324    6.1895 C   0  0  0  0  0  0  0  0  0  0  0  0
   33.1929    9.3441    5.2673 C   0  0  0  0  0  0  0  0  0  0  0  0
   34.1666    9.9342    4.4884 C   0  0  0  0  0  0  0  0  0  0  0  0
   34.5335   11.2415    4.7690 C   0  0  0  0  0  0  0  0  0  0  0  0
   34.9243   12.0630    3.7065 N   0  0  0  0  0  0  0  0  0  0  0  0
   34.3191   13.3248    3.5840 C   0  0  0  0  0  0  0  0  0  0  0  0
   34.0742   14.1274    4.4783 O   0  0  0  0  0  0  0  0  0  0  0  0
   33.8130   13.5196    2.1644 C   0  0  1  0  0  0  0  0  0  0  0  0
   33.7332   14.9736    1.7533 C   0  0  0  0  0  0  0  0  0  0  0  0
   34.0547   14.8963    0.2847 C   0  0  0  0  0  0  0  0  0  0  0  0
   35.0815   13.7878    0.2469 C   0  0  0  0  0  0  0  0  0  0  0  0
   34.6703   12.8328    1.2293 O   0  0  0  0  0  0  0  0  0  0  0  0
   34.1704   11.8456    5.9440 C   0  0  0  0  0  0  0  0  0  0  0  0
   32.9918   11.4238    6.4806 C   0  0  0  0  0  0  0  0  0  0  0  0
   32.1913   12.3338    7.0759 O   0  0  0  0  0  0  0  0  0  0  0  0
   32.7102   13.5032    7.7006 C   0  0  2  0  0  0  0  0  0  0  0  0
   31.3815   14.0590    8.1192 C   0  0  0  0  0  0  0  0  0  0  0  0
   31.0257   14.7229    6.7697 C   0  0  0  0  0  0  0  0  0  0  0  0
   32.1005   15.6379    6.6513 N   0  0  0  0  0  0  0  0  0  0  0  0
   31.8619   17.0126    7.0868 C   0  0  0  0  0  0  0  0  0  0  0  0
   33.1705   14.9566    7.2776 C   0  0  0  0  0  0  0  0  0  0  0  0
   34.1613   15.5140    7.7304 O   0  0  0  0  0  0  0  0  0  0  0  0
  1  2  1  0
  2  3  2  0
  3  4  1  0
  4  5  2  0
  5  6  1  0
  6  7  1  0
  7  8  2  0
  9  7  1  1
  9 10  1  0
 10 11  1  0
 11 12  1  0
 12 13  1  0
  5 14  1  0
 14 15  2  0
 15 16  1  0
 17 16  1  6
 17 18  1  0
 18 19  1  0
 19 20  1  0
 20 21  1  0
 20 22  1  0
 22 23  2  0
 15  2  1  0
 22 17  1  0
 13  9  1  0
M  END
>  <original ID>  (41) 
None

>  <RMSD>  (41) 
2.919694

>  <submitter_name>  (41) 
None

>  <original SMILES>  (41) 
Cc1ccc(NC(=O)[C@H]2CCCO2)cc1O[C@@H]1CCN(C)C1=O

>  <ref_pdb>  (41) 
Ax0310a

>  <method>  (41) 
None

>  <ddG>  (41) 
28.427982

>  <submitter_email>  (41) 
None

>  <ref_url>  (41) 
None

>  <ref_mols>  (41) 
Ax0528a,Ax0416a

>  <tags>  (41) 
['base']

>  <generation_date>  (41) 
None

$$$$
Cc1ccc(NC(=O)[C@@H]2CCCO2)cc1O[C@@H]1CCN(C)C1=O
     RDKit          3D

 23 25  0  0  0  0  0  0  0  0999 V2000
   31.0211    9.5222    6.8937 C   0  0  0  0  0  0  0  0  0  0  0  0
   31.9658   10.2910    6.0553 C   0  0  0  0  0  0  0  0  0  0  0  0
   32.5436    9.5527    5.0154 C   0  0  0  0  0  0  0  0  0  0  0  0
   33.5440   10.1163    4.2554 C   0  0  0  0  0  0  0  0  0  0  0  0
   34.0709   11.3214    4.6690 C   0  0  0  0  0  0  0  0  0  0  0  0
   34.8324   12.0783    3.7813 N   0  0  0  0  0  0  0  0  0  0  0  0
   34.8330   13.4730    3.8023 C   0  0  0  0  0  0  0  0  0  0  0  0
   34.6129   14.2115    4.7587 O   0  0  0  0  0  0  0  0  0  0  0  0
   35.0956   14.0499    2.4102 C   0  0  2  0  0  0  0  0  0  0  0  0
   33.9271   14.9166    1.9632 C   0  0  0  0  0  0  0  0  0  0  0  0
   33.0930   13.9533    1.1599 C   0  0  0  0  0  0  0  0  0  0  0  0
   34.1495   13.0984    0.5035 C   0  0  0  0  0  0  0  0  0  0  0  0
   35.2339   12.9937    1.4350 O   0  0  0  0  0  0  0  0  0  0  0  0
   33.6797   11.8765    5.8634 C   0  0  0  0  0  0  0  0  0  0  0  0
   32.4417   11.5711    6.3623 C   0  0  0  0  0  0  0  0  0  0  0  0
   31.7002   12.4979    7.0573 O   0  0  0  0  0  0  0  0  0  0  0  0
   32.1586   13.8534    7.0987 C   0  0  2  0  0  0  0  0  0  0  0  0
   32.4508   14.2583    8.5269 C   0  0  0  0  0  0  0  0  0  0  0  0
   32.6820   15.7548    8.4426 C   0  0  0  0  0  0  0  0  0  0  0  0
   31.8806   16.1941    7.3390 N   0  0  0  0  0  0  0  0  0  0  0  0
   31.2993   17.5272    7.3105 C   0  0  0  0  0  0  0  0  0  0  0  0
   31.3549   15.0877    6.6548 C   0  0  0  0  0  0  0  0  0  0  0  0
   30.4617   15.1181    5.8298 O   0  0  0  0  0  0  0  0  0  0  0  0
  1  2  1  0
  2  3  2  0
  3  4  1  0
  4  5  2  0
  5  6  1  0
  6  7  1  0
  7  8  2  0
  9  7  1  1
  9 10  1  0
 10 11  1  0
 11 12  1  0
 12 13  1  0
  5 14  1  0
 14 15  2  0
 15 16  1  0
 17 16  1  1
 17 18  1  0
 18 19  1  0
 19 20  1  0
 20 21  1  0
 20 22  1  0
 22 23  2  0
 15  2  1  0
 22 17  1  0
 13  9  1  0
M  END
>  <original ID>  (42) 
None

>  <RMSD>  (42) 
2.8651

>  <submitter_name>  (42) 
None

>  <original SMILES>  (42) 
Cc1ccc(NC(=O)[C@@H]2CCCO2)cc1O[C@@H]1CCN(C)C1=O

>  <ref_pdb>  (42) 
Ax0310a

>  <method>  (42) 
None

>  <ddG>  (42) 
-0.694888

>  <submitter_email>  (42) 
None

>  <ref_url>  (42) 
None

>  <ref_mols>  (42) 
Ax0528a,Ax0416a

>  <tags>  (42) 
['base']

>  <generation_date>  (42) 
None

$$$$
Cc1ccc(NC(=O)[C@H]2CCCO2)cc1O[C@@H]1CCN(C)C1=O
     RDKit          3D

 23 25  0  0  0  0  0  0  0  0999 V2000
   31.1800    9.5229    6.8469 C   0  0  0  0  0  0  0  0  0  0  0  0
   32.2681   10.3533    6.2679 C   0  0  0  0  0  0  0  0  0  0  0  0
   33.1684    9.6397    5.4740 C   0  0  0  0  0  0  0  0  0  0  0  0
   34.1942   10.3044    4.8398 C   0  0  0  0  0  0  0  0  0  0  0  0
   34.3577   11.6560    5.0827 C   0  0  0  0  0  0  0  0  0  0  0  0
   35.0869   12.4227    4.1645 N   0  0  0  0  0  0  0  0  0  0  0  0
   34.5341   13.6584    3.8236 C   0  0  0  0  0  0  0  0  0  0  0  0
   34.3860   14.6164    4.5756 O   0  0  0  0  0  0  0  0  0  0  0  0
   33.9416   13.5951    2.4225 C   0  0  1  0  0  0  0  0  0  0  0  0
   33.7108   14.9540    1.7989 C   0  0  0  0  0  0  0  0  0  0  0  0
   33.9036   14.6546    0.3361 C   0  0  0  0  0  0  0  0  0  0  0  0
   35.0177   13.6329    0.3700 C   0  0  0  0  0  0  0  0  0  0  0  0
   34.8075   12.8459    1.5465 O   0  0  0  0  0  0  0  0  0  0  0  0
   33.6206   12.3053    6.0512 C   0  0  0  0  0  0  0  0  0  0  0  0
   32.4819   11.7214    6.5253 C   0  0  0  0  0  0  0  0  0  0  0  0
   31.5790   12.4550    7.2124 O   0  0  0  0  0  0  0  0  0  0  0  0
   31.5578   13.8683    7.2712 C   0  0  2  0  0  0  0  0  0  0  0  0
   31.1625   14.5011    5.9315 C   0  0  0  0  0  0  0  0  0  0  0  0
   31.1750   15.9952    6.1691 C   0  0  0  0  0  0  0  0  0  0  0  0
   32.0222   16.2012    7.3212 N   0  0  0  0  0  0  0  0  0  0  0  0
   31.9814   17.4648    8.0370 C   0  0  0  0  0  0  0  0  0  0  0  0
   32.3127   15.0030    7.9943 C   0  0  0  0  0  0  0  0  0  0  0  0
   32.8934   14.9096    9.0638 O   0  0  0  0  0  0  0  0  0  0  0  0
  1  2  1  0
  2  3  2  0
  3  4  1  0
  4  5  2  0
  5  6  1  0
  6  7  1  0
  7  8  2  0
  9  7  1  1
  9 10  1  0
 10 11  1  0
 11 12  1  0
 12 13  1  0
  5 14  1  0
 14 15  2  0
 15 16  1  0
 17 16  1  6
 17 18  1  0
 18 19  1  0
 19 20  1  0
 20 21  1  0
 20 22  1  0
 22 23  2  0
 15  2  1  0
 22 17  1  0
 13  9  1  0
M  END
>  <original ID>  (43) 
None

>  <RMSD>  (43) 
2.76102

>  <submitter_name>  (43) 
None

>  <original SMILES>  (43) 
Cc1ccc(NC(=O)[C@H]2CCCO2)cc1O[C@@H]1CCN(C)C1=O

>  <ref_pdb>  (43) 
Ax0310a

>  <method>  (43) 
None

>  <ddG>  (43) 
10.698939

>  <submitter_email>  (43) 
None

>  <ref_url>  (43) 
None

>  <ref_mols>  (43) 
Ax0528a,Ax0416a

>  <tags>  (43) 
['base']

>  <generation_date>  (43) 
None

$$$$
Cc1cc(C)c(O[C@@H]2CCN(C)C2=O)cc1NC(=O)[C@@H]1CCCO1
     RDKit          3D

 24 26  0  0  0  0  0  0  0  0999 V2000
   30.8988   10.9554    3.8700 C   0  0  0  0  0  0  0  0  0  0  0  0
   32.1616   10.7894    4.6415 C   0  0  0  0  0  0  0  0  0  0  0  0
   32.2023    9.8671    5.6811 C   0  0  0  0  0  0  0  0  0  0  0  0
   33.1734   10.0113    6.6670 C   0  0  0  0  0  0  0  0  0  0  0  0
   33.5025    8.7897    7.4772 C   0  0  0  0  0  0  0  0  0  0  0  0
   33.9122   11.2026    6.6812 C   0  0  0  0  0  0  0  0  0  0  0  0
   34.1087   12.0319    7.7695 O   0  0  0  0  0  0  0  0  0  0  0  0
   33.2904   13.2132    7.8638 C   0  0  2  0  0  0  0  0  0  0  0  0
   32.0397   13.2382    6.9772 C   0  0  0  0  0  0  0  0  0  0  0  0
   31.3538   14.4696    7.4287 C   0  0  0  0  0  0  0  0  0  0  0  0
   32.3996   15.4243    7.6263 N   0  0  0  0  0  0  0  0  0  0  0  0
   32.1345   16.7809    8.0803 C   0  0  0  0  0  0  0  0  0  0  0  0
   33.5571   14.7465    8.0112 C   0  0  0  0  0  0  0  0  0  0  0  0
   34.5053   15.2871    8.5509 O   0  0  0  0  0  0  0  0  0  0  0  0
   34.1957   11.7841    5.4867 C   0  0  0  0  0  0  0  0  0  0  0  0
   33.2410   11.6658    4.4966 C   0  0  0  0  0  0  0  0  0  0  0  0
   33.3042   12.5645    3.4413 N   0  0  0  0  0  0  0  0  0  0  0  0
   33.8595   13.8292    3.5665 C   0  0  0  0  0  0  0  0  0  0  0  0
   34.0044   14.4507    4.6169 O   0  0  0  0  0  0  0  0  0  0  0  0
   34.2345   14.4363    2.2311 C   0  0  2  0  0  0  0  0  0  0  0  0
   33.0156   14.9477    1.4882 C   0  0  0  0  0  0  0  0  0  0  0  0
   33.4010   14.7077    0.0528 C   0  0  0  0  0  0  0  0  0  0  0  0
   34.1776   13.4157    0.1374 C   0  0  0  0  0  0  0  0  0  0  0  0
   34.8491   13.4322    1.3965 O   0  0  0  0  0  0  0  0  0  0  0  0
  1  2  1  0
  2  3  2  0
  3  4  1  0
  4  5  1  0
  4  6  2  0
  6  7  1  0
  8  7  1  6
  8  9  1  0
  9 10  1  0
 10 11  1  0
 11 12  1  0
 11 13  1  0
 13 14  2  0
  6 15  1  0
 15 16  2  0
 16 17  1  0
 17 18  1  0
 18 19  2  0
 20 18  1  1
 20 21  1  0
 21 22  1  0
 22 23  1  0
 23 24  1  0
 16  2  1  0
 24 20  1  0
 13  8  1  0
M  END
>  <original ID>  (44) 
None

>  <RMSD>  (44) 
2.588817

>  <submitter_name>  (44) 
None

>  <original SMILES>  (44) 
Cc1cc(C)c(O[C@@H]2CCN(C)C2=O)cc1NC(=O)[C@@H]1CCCO1

>  <ref_pdb>  (44) 
Ax0310a

>  <method>  (44) 
None

>  <ddG>  (44) 
7.161165

>  <submitter_email>  (44) 
None

>  <ref_url>  (44) 
None

>  <ref_mols>  (44) 
Ax0528a,Ax0416a

>  <tags>  (44) 
['base']

>  <generation_date>  (44) 
None

$$$$
Cc1cc(C)c(O[C@@H]2CCN(C)C2=O)cc1NC(=O)[C@H]1CCCO1
     RDKit          3D

 24 26  0  0  0  0  0  0  0  0999 V2000
   30.5688   11.3211    3.4805 C   0  0  0  0  0  0  0  0  0  0  0  0
   31.6104   11.1645    4.5251 C   0  0  0  0  0  0  0  0  0  0  0  0
   31.3277   10.4262    5.6571 C   0  0  0  0  0  0  0  0  0  0  0  0
   32.2230   10.5132    6.6976 C   0  0  0  0  0  0  0  0  0  0  0  0
   32.7574    9.1196    7.0695 C   0  0  0  0  0  0  0  0  0  0  0  0
   33.0692   11.6225    6.6938 C   0  0  0  0  0  0  0  0  0  0  0  0
   33.0477   12.7152    7.5400 O   0  0  0  0  0  0  0  0  0  0  0  0
   31.9961   13.7058    7.4605 C   0  0  2  0  0  0  0  0  0  0  0  0
   31.5900   14.2083    6.0747 C   0  0  0  0  0  0  0  0  0  0  0  0
   31.2302   15.6689    6.1965 C   0  0  0  0  0  0  0  0  0  0  0  0
   31.9530   16.1131    7.3517 N   0  0  0  0  0  0  0  0  0  0  0  0
   31.7660   17.4552    7.8818 C   0  0  0  0  0  0  0  0  0  0  0  0
   32.3304   15.0396    8.1632 C   0  0  0  0  0  0  0  0  0  0  0  0
   32.7899   15.1570    9.2886 O   0  0  0  0  0  0  0  0  0  0  0  0
   33.7027   11.8686    5.5254 C   0  0  0  0  0  0  0  0  0  0  0  0
   32.8828   11.7538    4.4242 C   0  0  0  0  0  0  0  0  0  0  0  0
   33.2362   12.4020    3.2551 N   0  0  0  0  0  0  0  0  0  0  0  0
   33.8992   13.6199    3.2303 C   0  0  0  0  0  0  0  0  0  0  0  0
   34.3723   14.2393    4.1763 O   0  0  0  0  0  0  0  0  0  0  0  0
   33.8408   14.1849    1.8260 C   0  0  1  0  0  0  0  0  0  0  0  0
   34.7916   15.3343    1.5917 C   0  0  0  0  0  0  0  0  0  0  0  0
   35.2559   15.0731    0.1835 C   0  0  0  0  0  0  0  0  0  0  0  0
   35.3131   13.5654    0.1510 C   0  0  0  0  0  0  0  0  0  0  0  0
   34.1732   13.1335    0.8942 O   0  0  0  0  0  0  0  0  0  0  0  0
  1  2  1  0
  2  3  2  0
  3  4  1  0
  4  5  1  0
  4  6  2  0
  6  7  1  0
  8  7  1  6
  8  9  1  0
  9 10  1  0
 10 11  1  0
 11 12  1  0
 11 13  1  0
 13 14  2  0
  6 15  1  0
 15 16  2  0
 16 17  1  0
 17 18  1  0
 18 19  2  0
 20 18  1  1
 20 21  1  0
 21 22  1  0
 22 23  1  0
 23 24  1  0
 16  2  1  0
 24 20  1  0
 13  8  1  0
M  END
>  <original ID>  (45) 
None

>  <RMSD>  (45) 
2.53157

>  <submitter_name>  (45) 
None

>  <original SMILES>  (45) 
Cc1cc(C)c(O[C@@H]2CCN(C)C2=O)cc1NC(=O)[C@H]1CCCO1

>  <ref_pdb>  (45) 
Ax0310a

>  <method>  (45) 
None

>  <ddG>  (45) 
27.177585

>  <submitter_email>  (45) 
None

>  <ref_url>  (45) 
None

>  <ref_mols>  (45) 
Ax0528a,Ax0416a

>  <tags>  (45) 
['base']

>  <generation_date>  (45) 
None

$$$$
CN1CC[C@@H](Oc2cncc(NC(=O)[C@@H]3CCCO3)c2)C1=O
     RDKit          3D

 22 24  0  0  0  0  0  0  0  0999 V2000
   31.9648   16.9776    6.9648 C   0  0  0  0  0  0  0  0  0  0  0  0
   32.0720   15.5886    6.5163 N   0  0  0  0  0  0  0  0  0  0  0  0
   30.9287   14.7897    6.7306 C   0  0  0  0  0  0  0  0  0  0  0  0
   31.3160   14.1360    8.0916 C   0  0  0  0  0  0  0  0  0  0  0  0
   32.5206   13.4148    7.5880 C   0  0  1  0  0  0  0  0  0  0  0  0
   31.7753   12.2865    7.1091 O   0  0  0  0  0  0  0  0  0  0  0  0
   32.3659   11.3991    6.3043 C   0  0  0  0  0  0  0  0  0  0  0  0
   32.1714   10.0266    6.3367 C   0  0  0  0  0  0  0  0  0  0  0  0
   32.7869    9.1680    5.4825 N   0  0  0  0  0  0  0  0  0  0  0  0
   33.6255    9.7306    4.5750 C   0  0  0  0  0  0  0  0  0  0  0  0
   33.8170   11.0990    4.4624 C   0  0  0  0  0  0  0  0  0  0  0  0
   34.6080   11.7237    3.5048 N   0  0  0  0  0  0  0  0  0  0  0  0
   34.9493   13.0734    3.5850 C   0  0  0  0  0  0  0  0  0  0  0  0
   35.0029   13.7513    4.6093 O   0  0  0  0  0  0  0  0  0  0  0  0
   35.1346   13.7046    2.2182 C   0  0  2  0  0  0  0  0  0  0  0  0
   33.9380   14.5986    1.9142 C   0  0  0  0  0  0  0  0  0  0  0  0
   33.7640   14.4175    0.4319 C   0  0  0  0  0  0  0  0  0  0  0  0
   34.1345   12.9659    0.2535 C   0  0  0  0  0  0  0  0  0  0  0  0
   35.1879   12.6979    1.1865 O   0  0  0  0  0  0  0  0  0  0  0  0
   33.1112   11.9163    5.3031 C   0  0  0  0  0  0  0  0  0  0  0  0
   33.1006   14.8178    7.1096 C   0  0  0  0  0  0  0  0  0  0  0  0
   34.1493   15.2959    7.5188 O   0  0  0  0  0  0  0  0  0  0  0  0
  1  2  1  0
  2  3  1  0
  3  4  1  0
  4  5  1  0
  5  6  1  6
  6  7  1  0
  7  8  2  0
  8  9  1  0
  9 10  2  0
 10 11  1  0
 11 12  1  0
 12 13  1  0
 13 14  2  0
 15 13  1  1
 15 16  1  0
 16 17  1  0
 17 18  1  0
 18 19  1  0
 11 20  2  0
  5 21  1  0
 21 22  2  0
 21  2  1  0
 20  7  1  0
 19 15  1  0
M  END
>  <original ID>  (46) 
None

>  <RMSD>  (46) 
2.368462

>  <submitter_name>  (46) 
None

>  <original SMILES>  (46) 
CN1CC[C@@H](Oc2cncc(NC(=O)[C@@H]3CCCO3)c2)C1=O

>  <ref_pdb>  (46) 
Ax0310a

>  <method>  (46) 
None

>  <ddG>  (46) 
28.88526

>  <submitter_email>  (46) 
None

>  <ref_url>  (46) 
None

>  <ref_mols>  (46) 
Ax0528a,Ax0416a

>  <tags>  (46) 
['base']

>  <generation_date>  (46) 
None

$$$$
CN1CC[C@@H](Oc2cncc(NC(=O)[C@H]3CCCO3)c2)C1=O
     RDKit          3D

 22 24  0  0  0  0  0  0  0  0999 V2000
   31.9309   17.0288    7.0159 C   0  0  0  0  0  0  0  0  0  0  0  0
   32.0871   15.6451    6.5660 N   0  0  0  0  0  0  0  0  0  0  0  0
   30.9618   14.8060    6.7419 C   0  0  0  0  0  0  0  0  0  0  0  0
   31.3335   14.1503    8.1037 C   0  0  0  0  0  0  0  0  0  0  0  0
   32.5925   13.5045    7.6443 C   0  0  1  0  0  0  0  0  0  0  0  0
   31.9486   12.3886    7.0427 O   0  0  0  0  0  0  0  0  0  0  0  0
   32.6488   11.3870    6.4902 C   0  0  0  0  0  0  0  0  0  0  0  0
   32.0121   10.2061    6.1130 C   0  0  0  0  0  0  0  0  0  0  0  0
   32.5420    9.3231    5.2330 N   0  0  0  0  0  0  0  0  0  0  0  0
   33.6820    9.7286    4.6289 C   0  0  0  0  0  0  0  0  0  0  0  0
   34.3555   10.8832    5.0029 C   0  0  0  0  0  0  0  0  0  0  0  0
   35.2475   11.5740    4.1450 N   0  0  0  0  0  0  0  0  0  0  0  0
   34.7683   12.8524    3.8098 C   0  0  0  0  0  0  0  0  0  0  0  0
   35.1300   13.8382    4.4495 O   0  0  0  0  0  0  0  0  0  0  0  0
   33.7257   12.8838    2.6949 C   0  0  1  0  0  0  0  0  0  0  0  0
   33.2820   14.2945    2.3232 C   0  0  0  0  0  0  0  0  0  0  0  0
   33.2965   14.2735    0.8158 C   0  0  0  0  0  0  0  0  0  0  0  0
   34.4281   13.3190    0.5287 C   0  0  0  0  0  0  0  0  0  0  0  0
   34.3146   12.2933    1.5180 O   0  0  0  0  0  0  0  0  0  0  0  0
   33.9286   11.6041    6.0948 C   0  0  0  0  0  0  0  0  0  0  0  0
   33.1313   14.9068    7.1682 C   0  0  0  0  0  0  0  0  0  0  0  0
   34.1793   15.3966    7.5613 O   0  0  0  0  0  0  0  0  0  0  0  0
  1  2  1  0
  2  3  1  0
  3  4  1  0
  4  5  1  0
  5  6  1  6
  6  7  1  0
  7  8  2  0
  8  9  1  0
  9 10  2  0
 10 11  1  0
 11 12  1  0
 12 13  1  0
 13 14  2  0
 15 13  1  1
 15 16  1  0
 16 17  1  0
 17 18  1  0
 18 19  1  0
 11 20  2  0
  5 21  1  0
 21 22  2  0
 21  2  1  0
 20  7  1  0
 19 15  1  0
M  END
>  <original ID>  (47) 
None

>  <RMSD>  (47) 
2.405445

>  <submitter_name>  (47) 
None

>  <original SMILES>  (47) 
CN1CC[C@@H](Oc2cncc(NC(=O)[C@H]3CCCO3)c2)C1=O

>  <ref_pdb>  (47) 
Ax0310a

>  <method>  (47) 
None

>  <ddG>  (47) 
39.365451

>  <submitter_email>  (47) 
None

>  <ref_url>  (47) 
None

>  <ref_mols>  (47) 
Ax0528a,Ax0416a

>  <tags>  (47) 
['base']

>  <generation_date>  (47) 
None

$$$$
CN1CC[C@H](Oc2cc(NC(=O)[C@@H]3CCCO3)ccn2)C1=O
     RDKit          3D

 22 24  0  0  0  0  0  0  0  0999 V2000
   31.7850   17.4201    8.0655 C   0  0  0  0  0  0  0  0  0  0  0  0
   31.8914   16.1593    7.3454 N   0  0  0  0  0  0  0  0  0  0  0  0
   31.3346   15.9944    6.0304 C   0  0  0  0  0  0  0  0  0  0  0  0
   31.1693   14.4993    5.8206 C   0  0  0  0  0  0  0  0  0  0  0  0
   32.0230   13.8387    6.9040 C   0  0  2  0  0  0  0  0  0  0  0  0
   31.5889   12.5152    7.2262 O   0  0  0  0  0  0  0  0  0  0  0  0
   32.1754   11.4653    6.5835 C   0  0  0  0  0  0  0  0  0  0  0  0
   33.4356   11.5589    6.0928 C   0  0  0  0  0  0  0  0  0  0  0  0
   33.6785   10.8389    4.9567 C   0  0  0  0  0  0  0  0  0  0  0  0
   34.4437   11.4372    3.9403 N   0  0  0  0  0  0  0  0  0  0  0  0
   34.5716   12.8298    3.8308 C   0  0  0  0  0  0  0  0  0  0  0  0
   34.3723   13.6747    4.7009 O   0  0  0  0  0  0  0  0  0  0  0  0
   34.9608   13.2693    2.4261 C   0  0  2  0  0  0  0  0  0  0  0  0
   34.0964   14.4456    1.9856 C   0  0  0  0  0  0  0  0  0  0  0  0
   33.9878   14.2270    0.5023 C   0  0  0  0  0  0  0  0  0  0  0  0
   33.9233   12.7215    0.4210 C   0  0  0  0  0  0  0  0  0  0  0  0
   34.7652   12.2159    1.4651 O   0  0  0  0  0  0  0  0  0  0  0  0
   32.9861    9.6584    4.7430 C   0  0  0  0  0  0  0  0  0  0  0  0
   31.9005    9.4260    5.5685 C   0  0  0  0  0  0  0  0  0  0  0  0
   31.4240   10.3589    6.4198 N   0  0  0  0  0  0  0  0  0  0  0  0
   32.1119   14.9313    7.9784 C   0  0  0  0  0  0  0  0  0  0  0  0
   32.4212   14.7791    9.1486 O   0  0  0  0  0  0  0  0  0  0  0  0
  1  2  1  0
  2  3  1  0
  3  4  1  0
  4  5  1  0
  5  6  1  1
  6  7  1  0
  7  8  2  0
  8  9  1  0
  9 10  1  0
 10 11  1  0
 11 12  2  0
 13 11  1  1
 13 14  1  0
 14 15  1  0
 15 16  1  0
 16 17  1  0
  9 18  2  0
 18 19  1  0
 19 20  2  0
  5 21  1  0
 21 22  2  0
 21  2  1  0
 20  7  1  0
 17 13  1  0
M  END
>  <original ID>  (48) 
None

>  <RMSD>  (48) 
2.369871

>  <submitter_name>  (48) 
None

>  <original SMILES>  (48) 
CN1CC[C@H](Oc2cc(NC(=O)[C@@H]3CCCO3)ccn2)C1=O

>  <ref_pdb>  (48) 
Ax0310a

>  <method>  (48) 
None

>  <ddG>  (48) 
6.329235

>  <submitter_email>  (48) 
None

>  <ref_url>  (48) 
None

>  <ref_mols>  (48) 
Ax0528a,Ax0416a

>  <tags>  (48) 
['base']

>  <generation_date>  (48) 
None

$$$$
CN1CC[C@@H](Oc2cc(NC(=O)[C@@H]3CCCO3)ccn2)C1=O
     RDKit          3D

 22 24  0  0  0  0  0  0  0  0999 V2000
   32.0899   17.2736    8.0615 C   0  0  0  0  0  0  0  0  0  0  0  0
   32.0861   16.0048    7.3522 N   0  0  0  0  0  0  0  0  0  0  0  0
   31.2499   15.8265    6.1888 C   0  0  0  0  0  0  0  0  0  0  0  0
   31.1918   14.3330    5.9563 C   0  0  0  0  0  0  0  0  0  0  0  0
   31.5424   13.6895    7.3084 C   0  0  1  0  0  0  0  0  0  0  0  0
   31.4597   12.2725    7.2743 O   0  0  0  0  0  0  0  0  0  0  0  0
   32.2967   11.4751    6.5943 C   0  0  0  0  0  0  0  0  0  0  0  0
   33.4356   11.9633    6.0614 C   0  0  0  0  0  0  0  0  0  0  0  0
   33.9837   11.2406    5.0339 C   0  0  0  0  0  0  0  0  0  0  0  0
   34.7236   11.9127    4.0547 N   0  0  0  0  0  0  0  0  0  0  0  0
   34.7013   13.2990    3.8991 C   0  0  0  0  0  0  0  0  0  0  0  0
   34.4137   14.1466    4.7406 O   0  0  0  0  0  0  0  0  0  0  0  0
   35.0172   13.7152    2.4687 C   0  0  2  0  0  0  0  0  0  0  0  0
   33.9134   14.6236    1.9403 C   0  0  0  0  0  0  0  0  0  0  0  0
   33.8760   14.2712    0.4791 C   0  0  0  0  0  0  0  0  0  0  0  0
   34.1616   12.7898    0.5134 C   0  0  0  0  0  0  0  0  0  0  0  0
   35.0877   12.5772    1.5858 O   0  0  0  0  0  0  0  0  0  0  0  0
   33.6453    9.9016    4.8656 C   0  0  0  0  0  0  0  0  0  0  0  0
   32.6178    9.4083    5.6465 C   0  0  0  0  0  0  0  0  0  0  0  0
   31.8843   10.1948    6.4537 N   0  0  0  0  0  0  0  0  0  0  0  0
   32.3438   14.7994    8.0224 C   0  0  0  0  0  0  0  0  0  0  0  0
   32.9333   14.6897    9.0847 O   0  0  0  0  0  0  0  0  0  0  0  0
  1  2  1  0
  2  3  1  0
  3  4  1  0
  4  5  1  0
  5  6  1  6
  6  7  1  0
  7  8  2  0
  8  9  1  0
  9 10  1  0
 10 11  1  0
 11 12  2  0
 13 11  1  1
 13 14  1  0
 14 15  1  0
 15 16  1  0
 16 17  1  0
  9 18  2  0
 18 19  1  0
 19 20  2  0
  5 21  1  0
 21 22  2  0
 21  2  1  0
 20  7  1  0
 17 13  1  0
M  END
>  <original ID>  (49) 
None

>  <RMSD>  (49) 
2.356686

>  <submitter_name>  (49) 
None

>  <original SMILES>  (49) 
CN1CC[C@@H](Oc2cc(NC(=O)[C@@H]3CCCO3)ccn2)C1=O

>  <ref_pdb>  (49) 
Ax0310a

>  <method>  (49) 
None

>  <ddG>  (49) 
8.428394

>  <submitter_email>  (49) 
None

>  <ref_url>  (49) 
None

>  <ref_mols>  (49) 
Ax0528a,Ax0416a

>  <tags>  (49) 
['base']

>  <generation_date>  (49) 
None

$$$$
Cc1cnc(NC(=O)CO[C@@H]2CCN(C)C2=O)c(O)c1
     RDKit          3D

 20 21  0  0  0  0  0  0  0  0999 V2000
   30.7026    9.7510    7.1508 C   0  0  0  0  0  0  0  0  0  0  0  0
   31.7035    8.7362    6.6379 C   0  0  0  0  0  0  0  0  0  0  0  0
   32.9613    8.7065    7.2131 C   0  0  0  0  0  0  0  0  0  0  0  0
   33.9648    9.3721    6.6482 N   0  0  0  0  0  0  0  0  0  0  0  0
   33.6208   10.0010    5.5191 C   0  0  0  0  0  0  0  0  0  0  0  0
   34.2633   11.2199    5.3222 N   0  0  0  0  0  0  0  0  0  0  0  0
   33.7635   12.3014    6.0089 C   0  0  0  0  0  0  0  0  0  0  0  0
   34.5586   12.9320    6.7125 O   0  0  0  0  0  0  0  0  0  0  0  0
   32.2995   12.7486    5.8340 C   0  0  0  0  0  0  0  0  0  0  0  0
   31.7565   13.4511    6.9365 O   0  0  0  0  0  0  0  0  0  0  0  0
   32.3477   14.7162    7.1449 C   0  0  2  0  0  0  0  0  0  0  0  0
   32.5951   14.8710    8.6272 C   0  0  0  0  0  0  0  0  0  0  0  0
   32.7041   16.3688    8.8194 C   0  0  0  0  0  0  0  0  0  0  0  0
   31.8987   16.9499    7.7857 N   0  0  0  0  0  0  0  0  0  0  0  0
   31.1244   18.1525    8.0163 C   0  0  0  0  0  0  0  0  0  0  0  0
   31.5475   15.9829    6.8404 C   0  0  0  0  0  0  0  0  0  0  0  0
   30.7474   16.1190    5.9315 O   0  0  0  0  0  0  0  0  0  0  0  0
   32.5084    9.6438    4.7659 C   0  0  0  0  0  0  0  0  0  0  0  0
   32.0889   10.3750    3.7123 O   0  0  0  0  0  0  0  0  0  0  0  0
   31.6563    8.7115    5.2723 C   0  0  0  0  0  0  0  0  0  0  0  0
  1  2  1  0
  2  3  2  0
  3  4  1  0
  4  5  2  0
  5  6  1  0
  6  7  1  0
  7  8  2  0
  7  9  1  0
  9 10  1  0
 11 10  1  1
 11 12  1  0
 12 13  1  0
 13 14  1  0
 14 15  1  0
 14 16  1  0
 16 17  2  0
  5 18  1  0
 18 19  1  0
 18 20  2  0
 20  2  1  0
 16 11  1  0
M  END
>  <original ID>  (50) 
None

>  <RMSD>  (50) 
3.236548

>  <submitter_name>  (50) 
None

>  <original SMILES>  (50) 
Cc1cnc(NC(=O)CO[C@@H]2CCN(C)C2=O)c(O)c1

>  <ref_pdb>  (50) 
Ax0310a

>  <method>  (50) 
None

>  <ddG>  (50) 
52.537528

>  <submitter_email>  (50) 
None

>  <ref_url>  (50) 
None

>  <ref_mols>  (50) 
Ax0732a,Ax0528a

>  <tags>  (50) 
['base']

>  <generation_date>  (50) 
None

$$$$
Cc1cnc(NC(=O)CO[C@@H]2CCN(C)C2=O)c(O)c1
     RDKit          3D

 20 21  0  0  0  0  0  0  0  0999 V2000
   27.4855   10.8511    6.2345 C   0  0  0  0  0  0  0  0  0  0  0  0
   29.3305   11.4242    5.5250 C   0  0  0  0  0  0  0  0  0  0  0  0
   29.6158   12.2177    4.4062 C   0  0  0  0  0  0  0  0  0  0  0  0
   30.8947   12.4903    4.0364 N   0  0  0  0  0  0  0  0  0  0  0  0
   31.9042   11.9307    4.7528 C   0  0  0  0  0  0  0  0  0  0  0  0
   33.1801   12.4216    4.4970 N   0  0  0  0  0  0  0  0  0  0  0  0
   33.9908   13.0434    5.4152 C   0  0  0  0  0  0  0  0  0  0  0  0
   35.0131   13.5859    4.9844 O   0  0  0  0  0  0  0  0  0  0  0  0
   33.6138   13.1294    6.9083 C   0  0  0  0  0  0  0  0  0  0  0  0
   33.6870   14.4467    7.4388 O   0  0  0  0  0  0  0  0  0  0  0  0
   32.4680   15.1662    7.3514 C   0  0  2  0  0  0  0  0  0  0  0  0
   32.2068   15.7022    5.9451 C   0  0  0  0  0  0  0  0  0  0  0  0
   31.3955   16.9593    6.1706 C   0  0  0  0  0  0  0  0  0  0  0  0
   31.9076   17.4779    7.4109 N   0  0  0  0  0  0  0  0  0  0  0  0
   31.3534   18.6687    8.0059 C   0  0  0  0  0  0  0  0  0  0  0  0
   32.4338   16.4487    8.2019 C   0  0  0  0  0  0  0  0  0  0  0  0
   32.7538   16.5452    9.3780 O   0  0  0  0  0  0  0  0  0  0  0  0
   31.7295   10.9544    5.7199 C   0  0  0  0  0  0  0  0  0  0  0  0
   32.7368   10.2491    6.3023 O   0  0  0  0  0  0  0  0  0  0  0  0
   30.4538   10.7085    6.1348 C   0  0  0  0  0  0  0  0  0  0  0  0
  1  2  1  0
  2  3  2  0
  3  4  1  0
  4  5  2  0
  5  6  1  0
  6  7  1  0
  7  8  2  0
  7  9  1  0
  9 10  1  0
 11 10  1  6
 11 12  1  0
 12 13  1  0
 13 14  1  0
 14 15  1  0
 14 16  1  0
 16 17  2  0
  5 18  1  0
 18 19  1  0
 18 20  2  0
 20  2  1  0
 16 11  1  0
M  END
>  <original ID>  (51) 
None

>  <RMSD>  (51) 
3.189404

>  <submitter_name>  (51) 
None

>  <original SMILES>  (51) 
Cc1cnc(NC(=O)CO[C@@H]2CCN(C)C2=O)c(O)c1

>  <ref_pdb>  (51) 
Ax0310a

>  <method>  (51) 
None

>  <ddG>  (51) 
130.191899

>  <submitter_email>  (51) 
None

>  <ref_url>  (51) 
None

>  <ref_mols>  (51) 
Ax0732a,Ax0528a

>  <tags>  (51) 
['base']

>  <generation_date>  (51) 
None

$$$$
CN1CC[C@@H](OCC(=O)Nc2ccccc2O)C1=O
     RDKit          3D

 19 20  0  0  0  0  0  0  0  0999 V2000
   30.8671   17.7478    6.8964 C   0  0  0  0  0  0  0  0  0  0  0  0
   31.7180   16.6075    7.1899 N   0  0  0  0  0  0  0  0  0  0  0  0
   31.4834   15.3142    6.5777 C   0  0  0  0  0  0  0  0  0  0  0  0
   31.7334   14.2874    7.6737 C   0  0  0  0  0  0  0  0  0  0  0  0
   32.5940   14.9910    8.6848 C   0  0  1  0  0  0  0  0  0  0  0  0
   33.9081   14.5404    8.8183 O   0  0  0  0  0  0  0  0  0  0  0  0
   34.7444   14.5233    7.6749 C   0  0  0  0  0  0  0  0  0  0  0  0
   34.9516   13.0568    7.2919 C   0  0  0  0  0  0  0  0  0  0  0  0
   35.7039   12.3236    7.9264 O   0  0  0  0  0  0  0  0  0  0  0  0
   34.1288   12.6571    6.2476 N   0  0  0  0  0  0  0  0  0  0  0  0
   33.5403   11.3754    6.1944 C   0  0  0  0  0  0  0  0  0  0  0  0
   34.1806   10.2109    6.6062 C   0  0  0  0  0  0  0  0  0  0  0  0
   33.4863    8.9991    6.6225 C   0  0  0  0  0  0  0  0  0  0  0  0
   32.1575    8.9507    6.2168 C   0  0  0  0  0  0  0  0  0  0  0  0
   31.5274   10.1039    5.7765 C   0  0  0  0  0  0  0  0  0  0  0  0
   32.2097   11.3068    5.7676 C   0  0  0  0  0  0  0  0  0  0  0  0
   31.5597   12.4562    5.3964 O   0  0  0  0  0  0  0  0  0  0  0  0
   32.2581   16.4603    8.4710 C   0  0  0  0  0  0  0  0  0  0  0  0
   32.3725   17.3330    9.3174 O   0  0  0  0  0  0  0  0  0  0  0  0
  1  2  1  0
  2  3  1  0
  3  4  1  0
  4  5  1  0
  5  6  1  6
  6  7  1  0
  7  8  1  0
  8  9  2  0
  8 10  1  0
 10 11  1  0
 11 12  2  0
 12 13  1  0
 13 14  2  0
 14 15  1  0
 15 16  2  0
 16 17  1  0
  5 18  1  0
 18 19  2  0
 18  2  1  0
 16 11  1  0
M  END
>  <original ID>  (52) 
None

>  <RMSD>  (52) 
2.324248

>  <submitter_name>  (52) 
None

>  <original SMILES>  (52) 
CN1CC[C@@H](OCC(=O)Nc2ccccc2O)C1=O

>  <ref_pdb>  (52) 
Ax0310a

>  <method>  (52) 
None

>  <ddG>  (52) 
-12.919112

>  <submitter_email>  (52) 
None

>  <ref_url>  (52) 
None

>  <ref_mols>  (52) 
Ax0732a,Ax0528a

>  <tags>  (52) 
['base']

>  <generation_date>  (52) 
None

$$$$
CN1CC[C@@H](OCC(=O)Nc2ccccc2O)C1=O
     RDKit          3D

 19 20  0  0  0  0  0  0  0  0999 V2000
   30.6459   18.4318    7.7595 C   0  0  0  0  0  0  0  0  0  0  0  0
   30.9653   17.3545    6.8452 N   0  0  0  0  0  0  0  0  0  0  0  0
   29.9886   16.9336    5.8721 C   0  0  0  0  0  0  0  0  0  0  0  0
   30.5301   15.6317    5.3237 C   0  0  0  0  0  0  0  0  0  0  0  0
   31.3295   15.0281    6.4686 C   0  0  1  0  0  0  0  0  0  0  0  0
   32.2846   14.1450    5.9488 O   0  0  0  0  0  0  0  0  0  0  0  0
   32.1617   12.8023    6.4127 C   0  0  0  0  0  0  0  0  0  0  0  0
   33.5469   12.2594    6.6793 C   0  0  0  0  0  0  0  0  0  0  0  0
   34.4765   13.0050    7.0066 O   0  0  0  0  0  0  0  0  0  0  0  0
   33.8786   10.9559    6.5112 N   0  0  0  0  0  0  0  0  0  0  0  0
   33.1674    9.8353    6.0936 C   0  0  0  0  0  0  0  0  0  0  0  0
   33.9344    8.8718    5.4276 C   0  0  0  0  0  0  0  0  0  0  0  0
   33.3303    7.7897    4.8068 C   0  0  0  0  0  0  0  0  0  0  0  0
   31.9603    7.6409    4.9003 C   0  0  0  0  0  0  0  0  0  0  0  0
   31.2291    8.4803    5.7170 C   0  0  0  0  0  0  0  0  0  0  0  0
   31.8143    9.5955    6.2912 C   0  0  0  0  0  0  0  0  0  0  0  0
   31.0358   10.3845    7.0784 O   0  0  0  0  0  0  0  0  0  0  0  0
   31.7750   16.2739    7.2651 C   0  0  0  0  0  0  0  0  0  0  0  0
   32.5718   16.2911    8.1931 O   0  0  0  0  0  0  0  0  0  0  0  0
  1  2  1  0
  2  3  1  0
  3  4  1  0
  4  5  1  0
  5  6  1  6
  6  7  1  0
  7  8  1  0
  8  9  2  0
  8 10  1  0
 10 11  1  0
 11 12  2  0
 12 13  1  0
 13 14  2  0
 14 15  1  0
 15 16  2  0
 16 17  1  0
  5 18  1  0
 18 19  2  0
 18  2  1  0
 16 11  1  0
M  END
>  <original ID>  (53) 
None

>  <RMSD>  (53) 
2.409224

>  <submitter_name>  (53) 
None

>  <original SMILES>  (53) 
CN1CC[C@@H](OCC(=O)Nc2ccccc2O)C1=O

>  <ref_pdb>  (53) 
Ax0310a

>  <method>  (53) 
None

>  <ddG>  (53) 
1.888057

>  <submitter_email>  (53) 
None

>  <ref_url>  (53) 
None

>  <ref_mols>  (53) 
Ax0732a,Ax0528a

>  <tags>  (53) 
['base']

>  <generation_date>  (53) 
None

$$$$
Cc1ccc(NC(=O)CO[C@@H]2CCN(C)C2=O)c(O)c1
     RDKit          3D

 20 21  0  0  0  0  0  0  0  0999 V2000
   31.1143    7.6067    4.6212 C   0  0  0  0  0  0  0  0  0  0  0  0
   31.7580    8.8734    5.0602 C   0  0  0  0  0  0  0  0  0  0  0  0
   32.8913    8.8572    5.8789 C   0  0  0  0  0  0  0  0  0  0  0  0
   33.4397   10.0500    6.3423 C   0  0  0  0  0  0  0  0  0  0  0  0
   32.8245   11.2546    6.0251 C   0  0  0  0  0  0  0  0  0  0  0  0
   33.2217   12.4984    6.5077 N   0  0  0  0  0  0  0  0  0  0  0  0
   34.2172   12.8165    7.3993 C   0  0  0  0  0  0  0  0  0  0  0  0
   35.0609   12.0485    7.8452 O   0  0  0  0  0  0  0  0  0  0  0  0
   34.1146   14.2785    7.8404 C   0  0  0  0  0  0  0  0  0  0  0  0
   33.5567   15.0702    6.7872 O   0  0  0  0  0  0  0  0  0  0  0  0
   32.2930   15.6298    7.0945 C   0  0  2  0  0  0  0  0  0  0  0  0
   31.7163   16.2063    5.7993 C   0  0  0  0  0  0  0  0  0  0  0  0
   30.8997   17.4038    6.2293 C   0  0  0  0  0  0  0  0  0  0  0  0
   31.5601   17.8677    7.4207 N   0  0  0  0  0  0  0  0  0  0  0  0
   31.0696   19.0137    8.1429 C   0  0  0  0  0  0  0  0  0  0  0  0
   32.2727   16.8408    8.0429 C   0  0  0  0  0  0  0  0  0  0  0  0
   32.7736   16.8790    9.1578 O   0  0  0  0  0  0  0  0  0  0  0  0
   31.6979   11.2629    5.2016 C   0  0  0  0  0  0  0  0  0  0  0  0
   31.0777   12.4554    4.9417 O   0  0  0  0  0  0  0  0  0  0  0  0
   31.1878   10.0891    4.6875 C   0  0  0  0  0  0  0  0  0  0  0  0
  1  2  1  0
  2  3  2  0
  3  4  1  0
  4  5  2  0
  5  6  1  0
  6  7  1  0
  7  8  2  0
  7  9  1  0
  9 10  1  0
 11 10  1  6
 11 12  1  0
 12 13  1  0
 13 14  1  0
 14 15  1  0
 14 16  1  0
 16 17  2  0
  5 18  1  0
 18 19  1  0
 18 20  2  0
 20  2  1  0
 16 11  1  0
M  END
>  <original ID>  (54) 
None

>  <RMSD>  (54) 
3.398556

>  <submitter_name>  (54) 
None

>  <original SMILES>  (54) 
Cc1ccc(NC(=O)CO[C@@H]2CCN(C)C2=O)c(O)c1

>  <ref_pdb>  (54) 
Ax0310a

>  <method>  (54) 
None

>  <ddG>  (54) 
-41.844971

>  <submitter_email>  (54) 
None

>  <ref_url>  (54) 
None

>  <ref_mols>  (54) 
Ax0732a,Ax0528a

>  <tags>  (54) 
['base']

>  <generation_date>  (54) 
None

$$$$
Cc1ccc(NC(=O)CO[C@@H]2CCN(C)C2=O)c(O)c1
     RDKit          3D

 20 21  0  0  0  0  0  0  0  0999 V2000
   31.4324    7.1863    4.0451 C   0  0  0  0  0  0  0  0  0  0  0  0
   32.0375    8.3481    4.7623 C   0  0  0  0  0  0  0  0  0  0  0  0
   33.2214    8.2529    5.4951 C   0  0  0  0  0  0  0  0  0  0  0  0
   33.7246    9.3661    6.1756 C   0  0  0  0  0  0  0  0  0  0  0  0
   33.0636   10.5987    6.1182 C   0  0  0  0  0  0  0  0  0  0  0  0
   33.6518   11.6670    6.8331 N   0  0  0  0  0  0  0  0  0  0  0  0
   33.3925   13.0066    6.6481 C   0  0  0  0  0  0  0  0  0  0  0  0
   32.7754   13.4508    5.6803 O   0  0  0  0  0  0  0  0  0  0  0  0
   33.9240   13.9131    7.7634 C   0  0  0  0  0  0  0  0  0  0  0  0
   33.8614   15.2945    7.4393 O   0  0  0  0  0  0  0  0  0  0  0  0
   32.5379   15.8108    7.4238 C   0  0  2  0  0  0  0  0  0  0  0  0
   32.2733   16.5096    6.0898 C   0  0  0  0  0  0  0  0  0  0  0  0
   31.2807   17.5973    6.4303 C   0  0  0  0  0  0  0  0  0  0  0  0
   31.6557   17.9877    7.7626 N   0  0  0  0  0  0  0  0  0  0  0  0
   30.9993   19.0776    8.4361 C   0  0  0  0  0  0  0  0  0  0  0  0
   32.2923   16.9426    8.4352 C   0  0  0  0  0  0  0  0  0  0  0  0
   32.5765   16.9189    9.6241 O   0  0  0  0  0  0  0  0  0  0  0  0
   31.8551   10.6653    5.4154 C   0  0  0  0  0  0  0  0  0  0  0  0
   31.0268   11.7466    5.3747 O   0  0  0  0  0  0  0  0  0  0  0  0
   31.3653    9.5634    4.7318 C   0  0  0  0  0  0  0  0  0  0  0  0
  1  2  1  0
  2  3  2  0
  3  4  1  0
  4  5  2  0
  5  6  1  0
  6  7  1  0
  7  8  2  0
  7  9  1  0
  9 10  1  0
 11 10  1  6
 11 12  1  0
 12 13  1  0
 13 14  1  0
 14 15  1  0
 14 16  1  0
 16 17  2  0
  5 18  1  0
 18 19  1  0
 18 20  2  0
 20  2  1  0
 16 11  1  0
M  END
>  <original ID>  (55) 
None

>  <RMSD>  (55) 
3.371691

>  <submitter_name>  (55) 
None

>  <original SMILES>  (55) 
Cc1ccc(NC(=O)CO[C@@H]2CCN(C)C2=O)c(O)c1

>  <ref_pdb>  (55) 
Ax0310a

>  <method>  (55) 
None

>  <ddG>  (55) 
-38.007672

>  <submitter_email>  (55) 
None

>  <ref_url>  (55) 
None

>  <ref_mols>  (55) 
Ax0732a,Ax0528a

>  <tags>  (55) 
['base']

>  <generation_date>  (55) 
None

$$$$
CN1CC[C@H](OCC(=O)Nc2ccc(F)cc2O)C1=O
     RDKit          3D

 20 21  0  0  0  0  0  0  0  0999 V2000
   30.1050   18.1721    7.0456 C   0  0  0  0  0  0  0  0  0  0  0  0
   31.3233   17.5403    7.5090 N   0  0  0  0  0  0  0  0  0  0  0  0
   31.8171   17.8249    8.8207 C   0  0  0  0  0  0  0  0  0  0  0  0
   32.9404   16.8335    9.0138 C   0  0  0  0  0  0  0  0  0  0  0  0
   32.5252   15.6070    8.2364 C   0  0  2  0  0  0  0  0  0  0  0  0
   33.6093   14.9330    7.6322 O   0  0  0  0  0  0  0  0  0  0  0  0
   34.5325   14.3055    8.5230 C   0  0  0  0  0  0  0  0  0  0  0  0
   34.9126   12.9617    7.8951 C   0  0  0  0  0  0  0  0  0  0  0  0
   35.6263   12.1399    8.4551 O   0  0  0  0  0  0  0  0  0  0  0  0
   34.2910   12.7945    6.6593 N   0  0  0  0  0  0  0  0  0  0  0  0
   33.5567   11.6176    6.4394 C   0  0  0  0  0  0  0  0  0  0  0  0
   34.1483   10.3521    6.4899 C   0  0  0  0  0  0  0  0  0  0  0  0
   33.3549    9.2022    6.4083 C   0  0  0  0  0  0  0  0  0  0  0  0
   31.9811    9.3333    6.2763 C   0  0  0  0  0  0  0  0  0  0  0  0
   31.1952    8.2529    6.2246 F   0  0  0  0  0  0  0  0  0  0  0  0
   31.4007   10.5852    6.2079 C   0  0  0  0  0  0  0  0  0  0  0  0
   32.1789   11.7256    6.2856 C   0  0  0  0  0  0  0  0  0  0  0  0
   31.5070   12.9051    6.3671 O   0  0  0  0  0  0  0  0  0  0  0  0
   31.6718   16.2332    7.1335 C   0  0  0  0  0  0  0  0  0  0  0  0
   31.3395   15.6427    6.1169 O   0  0  0  0  0  0  0  0  0  0  0  0
  1  2  1  0
  2  3  1  0
  3  4  1  0
  4  5  1  0
  5  6  1  6
  6  7  1  0
  7  8  1  0
  8  9  2  0
  8 10  1  0
 10 11  1  0
 11 12  2  0
 12 13  1  0
 13 14  2  0
 14 15  1  0
 14 16  1  0
 16 17  2  0
 17 18  1  0
  5 19  1  0
 19 20  2  0
 19  2  1  0
 17 11  1  0
M  END
>  <original ID>  (56) 
None

>  <RMSD>  (56) 
2.688028

>  <submitter_name>  (56) 
None

>  <original SMILES>  (56) 
CN1CC[C@H](OCC(=O)Nc2ccc(F)cc2O)C1=O

>  <ref_pdb>  (56) 
Ax0310a

>  <method>  (56) 
None

>  <ddG>  (56) 
-20.84889

>  <submitter_email>  (56) 
None

>  <ref_url>  (56) 
None

>  <ref_mols>  (56) 
Ax0732a,Ax0528a

>  <tags>  (56) 
['base']

>  <generation_date>  (56) 
None

$$$$
CN1CC[C@H](OCC(=O)Nc2ccc(F)cc2O)C1=O
     RDKit          3D

 20 21  0  0  0  0  0  0  0  0999 V2000
   30.7503   18.4236    8.0668 C   0  0  0  0  0  0  0  0  0  0  0  0
   31.3758   17.3300    7.3513 N   0  0  0  0  0  0  0  0  0  0  0  0
   30.8123   16.8514    6.1141 C   0  0  0  0  0  0  0  0  0  0  0  0
   31.1893   15.3875    5.9949 C   0  0  0  0  0  0  0  0  0  0  0  0
   32.2297   15.1257    7.0782 C   0  0  2  0  0  0  0  0  0  0  0  0
   31.9952   13.8606    7.6527 O   0  0  0  0  0  0  0  0  0  0  0  0
   32.5937   12.7525    7.0162 C   0  0  0  0  0  0  0  0  0  0  0  0
   33.2613   12.6994    5.6290 C   0  0  0  0  0  0  0  0  0  0  0  0
   33.9376   13.6391    5.2049 O   0  0  0  0  0  0  0  0  0  0  0  0
   33.0616   11.6425    4.7799 N   0  0  0  0  0  0  0  0  0  0  0  0
   32.5108   10.3909    5.0404 C   0  0  0  0  0  0  0  0  0  0  0  0
   31.8199    9.7310    4.0377 C   0  0  0  0  0  0  0  0  0  0  0  0
   31.1540    8.5490    4.3322 C   0  0  0  0  0  0  0  0  0  0  0  0
   31.1554    8.0542    5.6135 C   0  0  0  0  0  0  0  0  0  0  0  0
   30.3763    6.9985    5.8786 F   0  0  0  0  0  0  0  0  0  0  0  0
   31.9786    8.6211    6.5657 C   0  0  0  0  0  0  0  0  0  0  0  0
   32.6914    9.7473    6.2456 C   0  0  0  0  0  0  0  0  0  0  0  0
   33.6706   10.1839    7.0724 O   0  0  0  0  0  0  0  0  0  0  0  0
   32.0877   16.3257    8.0246 C   0  0  0  0  0  0  0  0  0  0  0  0
   32.5027   16.3889    9.1742 O   0  0  0  0  0  0  0  0  0  0  0  0
  1  2  1  0
  2  3  1  0
  3  4  1  0
  4  5  1  0
  5  6  1  1
  6  7  1  0
  7  8  1  0
  8  9  2  0
  8 10  1  0
 10 11  1  0
 11 12  2  0
 12 13  1  0
 13 14  2  0
 14 15  1  0
 14 16  1  0
 16 17  2  0
 17 18  1  0
  5 19  1  0
 19 20  2  0
 19  2  1  0
 17 11  1  0
M  END
>  <original ID>  (57) 
None

>  <RMSD>  (57) 
2.619199

>  <submitter_name>  (57) 
None

>  <original SMILES>  (57) 
CN1CC[C@H](OCC(=O)Nc2ccc(F)cc2O)C1=O

>  <ref_pdb>  (57) 
Ax0310a

>  <method>  (57) 
None

>  <ddG>  (57) 
-24.14349

>  <submitter_email>  (57) 
None

>  <ref_url>  (57) 
None

>  <ref_mols>  (57) 
Ax0732a,Ax0528a

>  <tags>  (57) 
['base']

>  <generation_date>  (57) 
None

$$$$
Cc1cccc(O[C@@H]2CCN(C)C2=O)c1NC(=O)CO
     RDKit          3D

 20 21  0  0  0  0  0  0  0  0999 V2000
   35.1663    9.9657    6.5247 C   0  0  0  0  0  0  0  0  0  0  0  0
   33.8144   10.5864    6.3692 C   0  0  0  0  0  0  0  0  0  0  0  0
   32.7048    9.7440    6.2788 C   0  0  0  0  0  0  0  0  0  0  0  0
   31.4485   10.2786    6.0270 C   0  0  0  0  0  0  0  0  0  0  0  0
   31.2815   11.6572    5.8460 C   0  0  0  0  0  0  0  0  0  0  0  0
   32.3505   12.5145    6.0427 C   0  0  0  0  0  0  0  0  0  0  0  0
   32.3472   13.8743    5.8848 O   0  0  0  0  0  0  0  0  0  0  0  0
   31.3389   14.6567    6.4828 C   0  0  2  0  0  0  0  0  0  0  0  0
   30.4321   15.1881    5.3803 C   0  0  0  0  0  0  0  0  0  0  0  0
   30.0367   16.5945    5.7895 C   0  0  0  0  0  0  0  0  0  0  0  0
   31.0697   17.0250    6.6933 N   0  0  0  0  0  0  0  0  0  0  0  0
   30.8581   18.2004    7.5213 C   0  0  0  0  0  0  0  0  0  0  0  0
   31.8388   15.9463    7.1518 C   0  0  0  0  0  0  0  0  0  0  0  0
   32.7206   15.9980    8.0019 O   0  0  0  0  0  0  0  0  0  0  0  0
   33.6116   11.9721    6.3101 C   0  0  0  0  0  0  0  0  0  0  0  0
   34.6373   12.9212    6.4773 N   0  0  0  0  0  0  0  0  0  0  0  0
   35.2262   13.0915    7.7201 C   0  0  0  0  0  0  0  0  0  0  0  0
   35.3531   12.2327    8.5834 O   0  0  0  0  0  0  0  0  0  0  0  0
   35.7436   14.5214    7.8928 C   0  0  0  0  0  0  0  0  0  0  0  0
   35.1564   15.4371    6.9699 O   0  0  0  0  0  0  0  0  0  0  0  0
  1  2  1  0
  2  3  2  0
  3  4  1  0
  4  5  2  0
  5  6  1  0
  6  7  1  0
  8  7  1  6
  8  9  1  0
  9 10  1  0
 10 11  1  0
 11 12  1  0
 11 13  1  0
 13 14  2  0
  6 15  2  0
 15 16  1  0
 16 17  1  0
 17 18  2  0
 17 19  1  0
 19 20  1  0
 15  2  1  0
 13  8  1  0
M  END
>  <original ID>  (58) 
None

>  <RMSD>  (58) 
2.220473

>  <submitter_name>  (58) 
None

>  <original SMILES>  (58) 
Cc1cccc(O[C@@H]2CCN(C)C2=O)c1NC(=O)CO

>  <ref_pdb>  (58) 
Ax0310a

>  <method>  (58) 
None

>  <ddG>  (58) 
-52.785261

>  <submitter_email>  (58) 
None

>  <ref_url>  (58) 
None

>  <ref_mols>  (58) 
Ax0732a,Ax0528a

>  <tags>  (58) 
['base']

>  <generation_date>  (58) 
None

$$$$
Cc1cccc(O[C@H]2CCN(C)C2=O)c1NC(=O)CO
     RDKit          3D

 20 21  0  0  0  0  0  0  0  0999 V2000
   35.1330    9.8894    6.8363 C   0  0  0  0  0  0  0  0  0  0  0  0
   33.8246   10.4974    6.4374 C   0  0  0  0  0  0  0  0  0  0  0  0
   32.7056    9.6582    6.3656 C   0  0  0  0  0  0  0  0  0  0  0  0
   31.4975   10.1451    5.8896 C   0  0  0  0  0  0  0  0  0  0  0  0
   31.4063   11.4605    5.4276 C   0  0  0  0  0  0  0  0  0  0  0  0
   32.5015   12.3197    5.5373 C   0  0  0  0  0  0  0  0  0  0  0  0
   32.5067   13.5533    4.9474 O   0  0  0  0  0  0  0  0  0  0  0  0
   32.0602   14.7409    5.5689 C   0  0  1  0  0  0  0  0  0  0  0  0
   30.8000   14.5695    6.3489 C   0  0  0  0  0  0  0  0  0  0  0  0
   31.4028   14.1977    7.7109 C   0  0  0  0  0  0  0  0  0  0  0  0
   32.4405   15.1779    7.8898 N   0  0  0  0  0  0  0  0  0  0  0  0
   32.3543   16.2868    8.8204 C   0  0  0  0  0  0  0  0  0  0  0  0
   32.8327   15.5493    6.6157 C   0  0  0  0  0  0  0  0  0  0  0  0
   33.6078   16.4655    6.3970 O   0  0  0  0  0  0  0  0  0  0  0  0
   33.6900   11.8527    6.0998 C   0  0  0  0  0  0  0  0  0  0  0  0
   34.7164   12.7970    6.2735 N   0  0  0  0  0  0  0  0  0  0  0  0
   35.1981   13.1013    7.5383 C   0  0  0  0  0  0  0  0  0  0  0  0
   35.0655   12.4114    8.5422 O   0  0  0  0  0  0  0  0  0  0  0  0
   35.9350   14.4429    7.5691 C   0  0  0  0  0  0  0  0  0  0  0  0
   35.8933   15.1511    6.3338 O   0  0  0  0  0  0  0  0  0  0  0  0
  1  2  1  0
  2  3  2  0
  3  4  1  0
  4  5  2  0
  5  6  1  0
  6  7  1  0
  8  7  1  1
  8  9  1  0
  9 10  1  0
 10 11  1  0
 11 12  1  0
 11 13  1  0
 13 14  2  0
  6 15  2  0
 15 16  1  0
 16 17  1  0
 17 18  2  0
 17 19  1  0
 19 20  1  0
 15  2  1  0
 13  8  1  0
M  END
>  <original ID>  (59) 
None

>  <RMSD>  (59) 
2.547675

>  <submitter_name>  (59) 
None

>  <original SMILES>  (59) 
Cc1cccc(O[C@H]2CCN(C)C2=O)c1NC(=O)CO

>  <ref_pdb>  (59) 
Ax0310a

>  <method>  (59) 
None

>  <ddG>  (59) 
-10.181503

>  <submitter_email>  (59) 
None

>  <ref_url>  (59) 
None

>  <ref_mols>  (59) 
Ax0732a,Ax0528a

>  <tags>  (59) 
['base']

>  <generation_date>  (59) 
None

$$$$
Cc1cc(C)c(NC(=O)CO[C@@H]2CCN(C)C2=O)c(O)c1
     RDKit          3D

 21 22  0  0  0  0  0  0  0  0999 V2000
   35.5068    6.3353    6.9873 C   0  0  0  0  0  0  0  0  0  0  0  0
   34.6611    7.5130    6.6565 C   0  0  0  0  0  0  0  0  0  0  0  0
   34.8241    8.6908    7.3838 C   0  0  0  0  0  0  0  0  0  0  0  0
   34.1853    9.8676    7.0016 C   0  0  0  0  0  0  0  0  0  0  0  0
   34.6250   11.1352    7.6825 C   0  0  0  0  0  0  0  0  0  0  0  0
   33.2430    9.7861    5.9757 C   0  0  0  0  0  0  0  0  0  0  0  0
   32.4351   10.8568    5.6041 N   0  0  0  0  0  0  0  0  0  0  0  0
   32.8775   12.1561    5.5712 C   0  0  0  0  0  0  0  0  0  0  0  0
   34.0231   12.5181    5.3315 O   0  0  0  0  0  0  0  0  0  0  0  0
   31.7751   13.0875    5.9700 C   0  0  0  0  0  0  0  0  0  0  0  0
   32.1920   14.4352    5.9013 O   0  0  0  0  0  0  0  0  0  0  0  0
   31.2007   15.2949    6.3806 C   0  0  2  0  0  0  0  0  0  0  0  0
   30.3651   15.8760    5.2525 C   0  0  0  0  0  0  0  0  0  0  0  0
   29.7343   17.1107    5.8617 C   0  0  0  0  0  0  0  0  0  0  0  0
   30.6983   17.5683    6.8312 N   0  0  0  0  0  0  0  0  0  0  0  0
   30.3317   18.5952    7.7804 C   0  0  0  0  0  0  0  0  0  0  0  0
   31.6052   16.5450    7.1857 C   0  0  0  0  0  0  0  0  0  0  0  0
   32.4505   16.5981    8.0680 O   0  0  0  0  0  0  0  0  0  0  0  0
   33.0303    8.5870    5.2960 C   0  0  0  0  0  0  0  0  0  0  0  0
   32.1015    8.5537    4.2991 O   0  0  0  0  0  0  0  0  0  0  0  0
   33.7993    7.4802    5.5680 C   0  0  0  0  0  0  0  0  0  0  0  0
  1  2  1  0
  2  3  2  0
  3  4  1  0
  4  5  1  0
  4  6  2  0
  6  7  1  0
  7  8  1  0
  8  9  2  0
  8 10  1  0
 10 11  1  0
 12 11  1  6
 12 13  1  0
 13 14  1  0
 14 15  1  0
 15 16  1  0
 15 17  1  0
 17 18  2  0
  6 19  1  0
 19 20  1  0
 19 21  2  0
 21  2  1  0
 17 12  1  0
M  END
>  <original ID>  (60) 
None

>  <RMSD>  (60) 
2.890779

>  <submitter_name>  (60) 
None

>  <original SMILES>  (60) 
Cc1cc(C)c(NC(=O)CO[C@@H]2CCN(C)C2=O)c(O)c1

>  <ref_pdb>  (60) 
Ax0310a

>  <method>  (60) 
None

>  <ddG>  (60) 
-22.831527

>  <submitter_email>  (60) 
None

>  <ref_url>  (60) 
None

>  <ref_mols>  (60) 
Ax0732a,Ax0528a

>  <tags>  (60) 
['base']

>  <generation_date>  (60) 
None

$$$$
Cc1cc(C)c(NC(=O)CO[C@H]2CCN(C)C2=O)c(O)c1
     RDKit          3D

 21 22  0  0  0  0  0  0  0  0999 V2000
   35.1740    6.3607    6.6157 C   0  0  0  0  0  0  0  0  0  0  0  0
   34.3052    7.5204    6.3031 C   0  0  0  0  0  0  0  0  0  0  0  0
   34.4212    8.6588    7.0992 C   0  0  0  0  0  0  0  0  0  0  0  0
   33.8709    9.8568    6.6787 C   0  0  0  0  0  0  0  0  0  0  0  0
   34.3838   11.1327    7.2935 C   0  0  0  0  0  0  0  0  0  0  0  0
   33.0381    9.8318    5.5571 C   0  0  0  0  0  0  0  0  0  0  0  0
   32.4453   11.0151    5.1080 N   0  0  0  0  0  0  0  0  0  0  0  0
   31.7951   11.7719    6.0480 C   0  0  0  0  0  0  0  0  0  0  0  0
   31.2863   11.2847    7.0465 O   0  0  0  0  0  0  0  0  0  0  0  0
   31.8090   13.2451    5.7712 C   0  0  0  0  0  0  0  0  0  0  0  0
   31.8189   13.9979    6.9788 O   0  0  0  0  0  0  0  0  0  0  0  0
   32.0229   15.3773    6.7448 C   0  0  1  0  0  0  0  0  0  0  0  0
   30.9116   15.9619    5.8727 C   0  0  0  0  0  0  0  0  0  0  0  0
   30.6897   17.3776    6.3478 C   0  0  0  0  0  0  0  0  0  0  0  0
   31.4012   17.5052    7.5906 N   0  0  0  0  0  0  0  0  0  0  0  0
   31.0061   18.4993    8.5585 C   0  0  0  0  0  0  0  0  0  0  0  0
   32.0779   16.3309    7.9498 C   0  0  0  0  0  0  0  0  0  0  0  0
   32.6130   16.1149    9.0272 O   0  0  0  0  0  0  0  0  0  0  0  0
   32.8491    8.6663    4.8205 C   0  0  0  0  0  0  0  0  0  0  0  0
   32.0495    8.6886    3.7225 O   0  0  0  0  0  0  0  0  0  0  0  0
   33.5183    7.5176    5.1576 C   0  0  0  0  0  0  0  0  0  0  0  0
  1  2  1  0
  2  3  2  0
  3  4  1  0
  4  5  1  0
  4  6  2  0
  6  7  1  0
  7  8  1  0
  8  9  2  0
  8 10  1  0
 10 11  1  0
 12 11  1  1
 12 13  1  0
 13 14  1  0
 14 15  1  0
 15 16  1  0
 15 17  1  0
 17 18  2  0
  6 19  1  0
 19 20  1  0
 19 21  2  0
 21  2  1  0
 17 12  1  0
M  END
>  <original ID>  (61) 
None

>  <RMSD>  (61) 
2.902882

>  <submitter_name>  (61) 
None

>  <original SMILES>  (61) 
Cc1cc(C)c(NC(=O)CO[C@H]2CCN(C)C2=O)c(O)c1

>  <ref_pdb>  (61) 
Ax0310a

>  <method>  (61) 
None

>  <ddG>  (61) 
-34.045189

>  <submitter_email>  (61) 
None

>  <ref_url>  (61) 
None

>  <ref_mols>  (61) 
Ax0732a,Ax0528a

>  <tags>  (61) 
['base']

>  <generation_date>  (61) 
None

$$$$
Cc1cc(O[C@@H]2CCN(C)C2=O)c(NC(=O)CO)c(C)n1
     RDKit          3D

 21 22  0  0  0  0  0  0  0  0999 V2000
   31.0899    9.0028    6.1162 C   0  0  0  0  0  0  0  0  0  0  0  0
   32.2225    9.9603    6.1805 C   0  0  0  0  0  0  0  0  0  0  0  0
   32.0258   11.3255    6.0404 C   0  0  0  0  0  0  0  0  0  0  0  0
   33.1212   12.1603    6.2262 C   0  0  0  0  0  0  0  0  0  0  0  0
   33.0541   13.5326    6.1771 O   0  0  0  0  0  0  0  0  0  0  0  0
   32.8263   14.1347    7.4568 C   0  0  2  0  0  0  0  0  0  0  0  0
   31.3604   14.0492    7.6184 C   0  0  0  0  0  0  0  0  0  0  0  0
   30.9513   15.0563    6.5252 C   0  0  0  0  0  0  0  0  0  0  0  0
   31.8100   16.1842    6.7917 N   0  0  0  0  0  0  0  0  0  0  0  0
   31.2689   17.4866    7.1705 C   0  0  0  0  0  0  0  0  0  0  0  0
   32.8765   15.6677    7.5351 C   0  0  0  0  0  0  0  0  0  0  0  0
   33.6521   16.3136    8.2217 O   0  0  0  0  0  0  0  0  0  0  0  0
   34.3775   11.6235    6.4174 C   0  0  0  0  0  0  0  0  0  0  0  0
   35.4396   12.5460    6.5135 N   0  0  0  0  0  0  0  0  0  0  0  0
   35.7958   12.9374    7.7990 C   0  0  0  0  0  0  0  0  0  0  0  0
   35.6979   12.2354    8.7974 O   0  0  0  0  0  0  0  0  0  0  0  0
   36.3025   14.3808    7.8393 C   0  0  0  0  0  0  0  0  0  0  0  0
   35.7853   15.1645    6.7643 O   0  0  0  0  0  0  0  0  0  0  0  0
   34.5039   10.2447    6.4699 C   0  0  0  0  0  0  0  0  0  0  0  0
   35.8343    9.5850    6.5533 C   0  0  0  0  0  0  0  0  0  0  0  0
   33.4357    9.4160    6.3744 N   0  0  0  0  0  0  0  0  0  0  0  0
  1  2  1  0
  2  3  2  0
  3  4  1  0
  4  5  1  0
  6  5  1  6
  6  7  1  0
  7  8  1  0
  8  9  1  0
  9 10  1  0
  9 11  1  0
 11 12  2  0
  4 13  2  0
 13 14  1  0
 14 15  1  0
 15 16  2  0
 15 17  1  0
 17 18  1  0
 13 19  1  0
 19 20  1  0
 19 21  2  0
 21  2  1  0
 11  6  1  0
M  END
>  <original ID>  (62) 
None

>  <RMSD>  (62) 
2.416806

>  <submitter_name>  (62) 
None

>  <original SMILES>  (62) 
Cc1cc(O[C@@H]2CCN(C)C2=O)c(NC(=O)CO)c(C)n1

>  <ref_pdb>  (62) 
Ax0310a

>  <method>  (62) 
None

>  <ddG>  (62) 
-23.113399

>  <submitter_email>  (62) 
None

>  <ref_url>  (62) 
None

>  <ref_mols>  (62) 
Ax0732a,Ax0528a

>  <tags>  (62) 
['base']

>  <generation_date>  (62) 
None

$$$$
Cc1cc(O[C@H]2CCN(C)C2=O)c(NC(=O)CO)c(C)n1
     RDKit          3D

 21 22  0  0  0  0  0  0  0  0999 V2000
   31.1904    8.7460    5.9476 C   0  0  0  0  0  0  0  0  0  0  0  0
   31.9944    9.9881    6.0316 C   0  0  0  0  0  0  0  0  0  0  0  0
   31.3910   11.2253    6.0799 C   0  0  0  0  0  0  0  0  0  0  0  0
   32.1615   12.3302    6.3882 C   0  0  0  0  0  0  0  0  0  0  0  0
   31.5058   13.4637    6.7862 O   0  0  0  0  0  0  0  0  0  0  0  0
   31.6284   14.6187    5.9683 C   0  0  1  0  0  0  0  0  0  0  0  0
   30.3919   14.8292    5.1035 C   0  0  0  0  0  0  0  0  0  0  0  0
   30.0119   16.2933    5.2632 C   0  0  0  0  0  0  0  0  0  0  0  0
   30.7538   16.7801    6.3889 N   0  0  0  0  0  0  0  0  0  0  0  0
   30.3509   17.9764    7.1136 C   0  0  0  0  0  0  0  0  0  0  0  0
   31.6782   15.8543    6.8678 C   0  0  0  0  0  0  0  0  0  0  0  0
   32.4183   15.9721    7.8373 O   0  0  0  0  0  0  0  0  0  0  0  0
   33.5316   12.1837    6.5792 C   0  0  0  0  0  0  0  0  0  0  0  0
   34.1889   13.3215    7.0556 N   0  0  0  0  0  0  0  0  0  0  0  0
   35.3112   13.4012    7.8360 C   0  0  0  0  0  0  0  0  0  0  0  0
   35.9387   12.4725    8.3215 O   0  0  0  0  0  0  0  0  0  0  0  0
   35.7020   14.8646    8.0356 C   0  0  0  0  0  0  0  0  0  0  0  0
   35.6094   15.5804    6.8007 O   0  0  0  0  0  0  0  0  0  0  0  0
   34.0872   10.9313    6.3062 C   0  0  0  0  0  0  0  0  0  0  0  0
   35.5457   10.6459    6.2073 C   0  0  0  0  0  0  0  0  0  0  0  0
   33.3219    9.8365    6.0772 N   0  0  0  0  0  0  0  0  0  0  0  0
  1  2  1  0
  2  3  2  0
  3  4  1  0
  4  5  1  0
  6  5  1  1
  6  7  1  0
  7  8  1  0
  8  9  1  0
  9 10  1  0
  9 11  1  0
 11 12  2  0
  4 13  2  0
 13 14  1  0
 14 15  1  0
 15 16  2  0
 15 17  1  0
 17 18  1  0
 13 19  1  0
 19 20  1  0
 19 21  2  0
 21  2  1  0
 11  6  1  0
M  END
>  <original ID>  (63) 
None

>  <RMSD>  (63) 
2.247226

>  <submitter_name>  (63) 
None

>  <original SMILES>  (63) 
Cc1cc(O[C@H]2CCN(C)C2=O)c(NC(=O)CO)c(C)n1

>  <ref_pdb>  (63) 
Ax0310a

>  <method>  (63) 
None

>  <ddG>  (63) 
-41.162879

>  <submitter_email>  (63) 
None

>  <ref_url>  (63) 
None

>  <ref_mols>  (63) 
Ax0732a,Ax0528a

>  <tags>  (63) 
['base']

>  <generation_date>  (63) 
None

$$$$
Cc1cnc(NC(=O)CS)c(O[C@@H]2CCN(C)C2=O)c1
     RDKit          3D

 20 21  0  0  0  0  0  0  0  0999 V2000
   31.0569    9.0171    6.1766 C   0  0  0  0  0  0  0  0  0  0  0  0
   32.0717   10.0928    6.2853 C   0  0  0  0  0  0  0  0  0  0  0  0
   33.4051    9.7410    6.4478 C   0  0  0  0  0  0  0  0  0  0  0  0
   34.3909   10.6389    6.5485 N   0  0  0  0  0  0  0  0  0  0  0  0
   34.0253   11.9322    6.5187 C   0  0  0  0  0  0  0  0  0  0  0  0
   35.0064   12.9234    6.6059 N   0  0  0  0  0  0  0  0  0  0  0  0
   35.4117   13.2648    7.8804 C   0  0  0  0  0  0  0  0  0  0  0  0
   35.4821   12.4797    8.8221 O   0  0  0  0  0  0  0  0  0  0  0  0
   35.7496   14.7374    8.0686 C   0  0  0  0  0  0  0  0  0  0  0  0
   35.5631   15.7509    6.5606 S   0  0  0  0  0  0  0  0  0  0  0  0
   32.7182   12.4020    6.3637 C   0  0  0  0  0  0  0  0  0  0  0  0
   32.6323   13.7594    6.3117 O   0  0  0  0  0  0  0  0  0  0  0  0
   31.5285   14.4809    6.7986 C   0  0  2  0  0  0  0  0  0  0  0  0
   30.7073   14.9487    5.6021 C   0  0  0  0  0  0  0  0  0  0  0  0
   30.3555   16.4022    5.8544 C   0  0  0  0  0  0  0  0  0  0  0  0
   31.3094   16.8689    6.8255 N   0  0  0  0  0  0  0  0  0  0  0  0
   31.0490   18.1036    7.5484 C   0  0  0  0  0  0  0  0  0  0  0  0
   31.9557   15.7993    7.4651 C   0  0  0  0  0  0  0  0  0  0  0  0
   32.6681   15.8848    8.4580 O   0  0  0  0  0  0  0  0  0  0  0  0
   31.7259   11.4546    6.2113 C   0  0  0  0  0  0  0  0  0  0  0  0
  1  2  1  0
  2  3  2  0
  3  4  1  0
  4  5  2  0
  5  6  1  0
  6  7  1  0
  7  8  2  0
  7  9  1  0
  9 10  1  0
  5 11  1  0
 11 12  1  0
 13 12  1  6
 13 14  1  0
 14 15  1  0
 15 16  1  0
 16 17  1  0
 16 18  1  0
 18 19  2  0
 11 20  2  0
 20  2  1  0
 18 13  1  0
M  END
>  <original ID>  (64) 
None

>  <RMSD>  (64) 
2.238188

>  <submitter_name>  (64) 
None

>  <original SMILES>  (64) 
Cc1cnc(NC(=O)CS)c(O[C@@H]2CCN(C)C2=O)c1

>  <ref_pdb>  (64) 
Ax0310a

>  <method>  (64) 
None

>  <ddG>  (64) 
-56.318715

>  <submitter_email>  (64) 
None

>  <ref_url>  (64) 
None

>  <ref_mols>  (64) 
Ax0732a,Ax0528a

>  <tags>  (64) 
['base']

>  <generation_date>  (64) 
None

$$$$
Cc1cnc(NC(=O)CS)c(O[C@H]2CCN(C)C2=O)c1
     RDKit          3D

 20 21  0  0  0  0  0  0  0  0999 V2000
   31.0718    9.0284    6.2001 C   0  0  0  0  0  0  0  0  0  0  0  0
   32.1407   10.0550    6.2530 C   0  0  0  0  0  0  0  0  0  0  0  0
   33.4675    9.6525    6.2676 C   0  0  0  0  0  0  0  0  0  0  0  0
   34.4971   10.5098    6.2789 N   0  0  0  0  0  0  0  0  0  0  0  0
   34.1843   11.8173    6.3598 C   0  0  0  0  0  0  0  0  0  0  0  0
   35.2711   12.6820    6.4492 N   0  0  0  0  0  0  0  0  0  0  0  0
   35.3636   13.5100    7.5461 C   0  0  0  0  0  0  0  0  0  0  0  0
   34.8562   13.2676    8.6372 O   0  0  0  0  0  0  0  0  0  0  0  0
   36.2318   14.7249    7.3427 C   0  0  0  0  0  0  0  0  0  0  0  0
   35.6338   15.7509    5.9725 S   0  0  0  0  0  0  0  0  0  0  0  0
   32.8892   12.3447    6.3092 C   0  0  0  0  0  0  0  0  0  0  0  0
   32.7793   13.7107    6.2028 O   0  0  0  0  0  0  0  0  0  0  0  0
   31.7423   14.3516    6.8987 C   0  0  1  0  0  0  0  0  0  0  0  0
   31.9646   14.2676    8.3905 C   0  0  0  0  0  0  0  0  0  0  0  0
   32.5579   15.6097    8.7701 C   0  0  0  0  0  0  0  0  0  0  0  0
   32.1246   16.5422    7.7853 N   0  0  0  0  0  0  0  0  0  0  0  0
   31.6768   17.8711    8.1670 C   0  0  0  0  0  0  0  0  0  0  0  0
   31.5819   15.8652    6.7068 C   0  0  0  0  0  0  0  0  0  0  0  0
   30.9895   16.3922    5.7809 O   0  0  0  0  0  0  0  0  0  0  0  0
   31.8511   11.4282    6.2253 C   0  0  0  0  0  0  0  0  0  0  0  0
  1  2  1  0
  2  3  2  0
  3  4  1  0
  4  5  2  0
  5  6  1  0
  6  7  1  0
  7  8  2  0
  7  9  1  0
  9 10  1  0
  5 11  1  0
 11 12  1  0
 13 12  1  6
 13 14  1  0
 14 15  1  0
 15 16  1  0
 16 17  1  0
 16 18  1  0
 18 19  2  0
 11 20  2  0
 20  2  1  0
 18 13  1  0
M  END
>  <original ID>  (65) 
None

>  <RMSD>  (65) 
2.480981

>  <submitter_name>  (65) 
None

>  <original SMILES>  (65) 
Cc1cnc(NC(=O)CS)c(O[C@H]2CCN(C)C2=O)c1

>  <ref_pdb>  (65) 
Ax0310a

>  <method>  (65) 
None

>  <ddG>  (65) 
-19.585754

>  <submitter_email>  (65) 
None

>  <ref_url>  (65) 
None

>  <ref_mols>  (65) 
Ax0732a,Ax0528a

>  <tags>  (65) 
['base']

>  <generation_date>  (65) 
None

$$$$
CN1CC[C@H](Oc2ccccc2NC(=O)CS)C1=O
     RDKit          3D

 19 20  0  0  0  0  0  0  0  0999 V2000
   30.4275   17.9375    7.0984 C   0  0  0  0  0  0  0  0  0  0  0  0
   30.8119   16.7226    6.3939 N   0  0  0  0  0  0  0  0  0  0  0  0
   30.0700   16.2386    5.2668 C   0  0  0  0  0  0  0  0  0  0  0  0
   30.4288   14.7678    5.1200 C   0  0  0  0  0  0  0  0  0  0  0  0
   31.6456   14.5378    6.0079 C   0  0  2  0  0  0  0  0  0  0  0  0
   31.4884   13.4021    6.8463 O   0  0  0  0  0  0  0  0  0  0  0  0
   32.0947   12.2502    6.4211 C   0  0  0  0  0  0  0  0  0  0  0  0
   31.3218   11.2137    5.9105 C   0  0  0  0  0  0  0  0  0  0  0  0
   31.8652    9.9403    5.7588 C   0  0  0  0  0  0  0  0  0  0  0  0
   33.2078    9.7280    6.0565 C   0  0  0  0  0  0  0  0  0  0  0  0
   33.9998   10.7835    6.5238 C   0  0  0  0  0  0  0  0  0  0  0  0
   33.4301   12.0358    6.7513 C   0  0  0  0  0  0  0  0  0  0  0  0
   34.0705   13.1183    7.3588 N   0  0  0  0  0  0  0  0  0  0  0  0
   35.3341   13.1974    7.8740 C   0  0  0  0  0  0  0  0  0  0  0  0
   36.1005   12.2548    8.0346 O   0  0  0  0  0  0  0  0  0  0  0  0
   35.7116   14.6182    8.2568 C   0  0  0  0  0  0  0  0  0  0  0  0
   35.5840   15.7295    6.8147 S   0  0  0  0  0  0  0  0  0  0  0  0
   31.7111   15.7840    6.8895 C   0  0  0  0  0  0  0  0  0  0  0  0
   32.4582   15.9058    7.8550 O   0  0  0  0  0  0  0  0  0  0  0  0
  1  2  1  0
  2  3  1  0
  3  4  1  0
  4  5  1  0
  5  6  1  1
  6  7  1  0
  7  8  2  0
  8  9  1  0
  9 10  2  0
 10 11  1  0
 11 12  2  0
 12 13  1  0
 13 14  1  0
 14 15  2  0
 14 16  1  0
 16 17  1  0
  5 18  1  0
 18 19  2  0
 18  2  1  0
 12  7  1  0
M  END
>  <original ID>  (66) 
None

>  <RMSD>  (66) 
2.269439

>  <submitter_name>  (66) 
None

>  <original SMILES>  (66) 
CN1CC[C@H](Oc2ccccc2NC(=O)CS)C1=O

>  <ref_pdb>  (66) 
Ax0310a

>  <method>  (66) 
None

>  <ddG>  (66) 
-22.589779

>  <submitter_email>  (66) 
None

>  <ref_url>  (66) 
None

>  <ref_mols>  (66) 
Ax0732a,Ax0528a

>  <tags>  (66) 
['base']

>  <generation_date>  (66) 
None

$$$$
CN1CC[C@@H](Oc2ccccc2NC(=O)CS)C1=O
     RDKit          3D

 19 20  0  0  0  0  0  0  0  0999 V2000
   31.3119   17.9776    8.0318 C   0  0  0  0  0  0  0  0  0  0  0  0
   31.9178   16.7029    7.6839 N   0  0  0  0  0  0  0  0  0  0  0  0
   32.5933   15.9090    8.6692 C   0  0  0  0  0  0  0  0  0  0  0  0
   32.2871   14.4600    8.3154 C   0  0  0  0  0  0  0  0  0  0  0  0
   32.1331   14.5193    6.8075 C   0  0  1  0  0  0  0  0  0  0  0  0
   31.5559   13.3781    6.2166 O   0  0  0  0  0  0  0  0  0  0  0  0
   32.1723   12.1523    6.2239 C   0  0  0  0  0  0  0  0  0  0  0  0
   31.2860   11.0919    6.0022 C   0  0  0  0  0  0  0  0  0  0  0  0
   31.6656    9.7540    6.1314 C   0  0  0  0  0  0  0  0  0  0  0  0
   32.9842    9.4498    6.4198 C   0  0  0  0  0  0  0  0  0  0  0  0
   33.9064   10.4855    6.5636 C   0  0  0  0  0  0  0  0  0  0  0  0
   33.5111   11.8308    6.4568 C   0  0  0  0  0  0  0  0  0  0  0  0
   34.5003   12.8188    6.4938 N   0  0  0  0  0  0  0  0  0  0  0  0
   35.3767   12.9703    7.5467 C   0  0  0  0  0  0  0  0  0  0  0  0
   35.5673   12.1286    8.4201 O   0  0  0  0  0  0  0  0  0  0  0  0
   36.0505   14.3322    7.6341 C   0  0  0  0  0  0  0  0  0  0  0  0
   35.9134   15.3381    6.1267 S   0  0  0  0  0  0  0  0  0  0  0  0
   31.4148   15.8685    6.6774 C   0  0  0  0  0  0  0  0  0  0  0  0
   30.5817   16.1728    5.8450 O   0  0  0  0  0  0  0  0  0  0  0  0
  1  2  1  0
  2  3  1  0
  3  4  1  0
  4  5  1  0
  5  6  1  1
  6  7  1  0
  7  8  2  0
  8  9  1  0
  9 10  2  0
 10 11  1  0
 11 12  2  0
 12 13  1  0
 13 14  1  0
 14 15  2  0
 14 16  1  0
 16 17  1  0
  5 18  1  0
 18 19  2  0
 18  2  1  0
 12  7  1  0
M  END
>  <original ID>  (67) 
None

>  <RMSD>  (67) 
2.356692

>  <submitter_name>  (67) 
None

>  <original SMILES>  (67) 
CN1CC[C@@H](Oc2ccccc2NC(=O)CS)C1=O

>  <ref_pdb>  (67) 
Ax0310a

>  <method>  (67) 
None

>  <ddG>  (67) 
-15.84186

>  <submitter_email>  (67) 
None

>  <ref_url>  (67) 
None

>  <ref_mols>  (67) 
Ax0732a,Ax0528a

>  <tags>  (67) 
['base']

>  <generation_date>  (67) 
None

$$$$
Cc1ccc(NC(=O)CS)c(O[C@@H]2CCN(C)C2=O)c1
     RDKit          3D

 20 21  0  0  0  0  0  0  0  0999 V2000
   31.0816    8.6873    5.9433 C   0  0  0  0  0  0  0  0  0  0  0  0
   31.9951    9.8362    6.1538 C   0  0  0  0  0  0  0  0  0  0  0  0
   33.3352    9.6143    6.4298 C   0  0  0  0  0  0  0  0  0  0  0  0
   34.1739   10.7031    6.6002 C   0  0  0  0  0  0  0  0  0  0  0  0
   33.6795   12.0145    6.5146 C   0  0  0  0  0  0  0  0  0  0  0  0
   34.6129   13.0490    6.5617 N   0  0  0  0  0  0  0  0  0  0  0  0
   35.4858   13.2236    7.6129 C   0  0  0  0  0  0  0  0  0  0  0  0
   35.6988   12.3900    8.4888 O   0  0  0  0  0  0  0  0  0  0  0  0
   36.1224   14.6012    7.6890 C   0  0  0  0  0  0  0  0  0  0  0  0
   35.9463   15.5888    6.1722 S   0  0  0  0  0  0  0  0  0  0  0  0
   32.3198   12.2560    6.2942 C   0  0  0  0  0  0  0  0  0  0  0  0
   31.6246   13.4383    6.3065 O   0  0  0  0  0  0  0  0  0  0  0  0
   32.1679   14.6115    6.8620 C   0  0  2  0  0  0  0  0  0  0  0  0
   32.3342   14.5760    8.3691 C   0  0  0  0  0  0  0  0  0  0  0  0
   32.5913   16.0381    8.7042 C   0  0  0  0  0  0  0  0  0  0  0  0
   31.8872   16.7966    7.7102 N   0  0  0  0  0  0  0  0  0  0  0  0
   31.2376   18.0520    8.0439 C   0  0  0  0  0  0  0  0  0  0  0  0
   31.4134   15.9362    6.7107 C   0  0  0  0  0  0  0  0  0  0  0  0
   30.5772   16.2046    5.8690 O   0  0  0  0  0  0  0  0  0  0  0  0
   31.5044   11.1459    6.0726 C   0  0  0  0  0  0  0  0  0  0  0  0
  1  2  1  0
  2  3  2  0
  3  4  1  0
  4  5  2  0
  5  6  1  0
  6  7  1  0
  7  8  2  0
  7  9  1  0
  9 10  1  0
  5 11  1  0
 11 12  1  0
 13 12  1  1
 13 14  1  0
 14 15  1  0
 15 16  1  0
 16 17  1  0
 16 18  1  0
 18 19  2  0
 11 20  2  0
 20  2  1  0
 18 13  1  0
M  END
>  <original ID>  (68) 
None

>  <RMSD>  (68) 
2.401057

>  <submitter_name>  (68) 
None

>  <original SMILES>  (68) 
Cc1ccc(NC(=O)CS)c(O[C@@H]2CCN(C)C2=O)c1

>  <ref_pdb>  (68) 
Ax0310a

>  <method>  (68) 
None

>  <ddG>  (68) 
-12.079999

>  <submitter_email>  (68) 
None

>  <ref_url>  (68) 
None

>  <ref_mols>  (68) 
Ax0732a,Ax0528a

>  <tags>  (68) 
['base']

>  <generation_date>  (68) 
None

$$$$
Cc1ccc(NC(=O)CS)c(O[C@H]2CCN(C)C2=O)c1
     RDKit          3D

 20 21  0  0  0  0  0  0  0  0999 V2000
   31.2384    8.7049    5.7788 C   0  0  0  0  0  0  0  0  0  0  0  0
   32.0617    9.9190    6.0369 C   0  0  0  0  0  0  0  0  0  0  0  0
   33.4355    9.8142    6.2419 C   0  0  0  0  0  0  0  0  0  0  0  0
   34.1767   10.9416    6.5970 C   0  0  0  0  0  0  0  0  0  0  0  0
   33.5365   12.1639    6.7982 C   0  0  0  0  0  0  0  0  0  0  0  0
   34.1388   13.2863    7.3669 N   0  0  0  0  0  0  0  0  0  0  0  0
   35.3928   13.4013    7.9014 C   0  0  0  0  0  0  0  0  0  0  0  0
   36.1716   12.4776    8.1076 O   0  0  0  0  0  0  0  0  0  0  0  0
   35.7405   14.8370    8.2475 C   0  0  0  0  0  0  0  0  0  0  0  0
   35.5918   15.9066    6.7764 S   0  0  0  0  0  0  0  0  0  0  0  0
   32.1824   12.2892    6.5025 C   0  0  0  0  0  0  0  0  0  0  0  0
   31.5045   13.4184    6.8743 O   0  0  0  0  0  0  0  0  0  0  0  0
   31.6645   14.5540    6.0355 C   0  0  1  0  0  0  0  0  0  0  0  0
   30.4499   14.7745    5.1414 C   0  0  0  0  0  0  0  0  0  0  0  0
   30.0822   16.2439    5.2813 C   0  0  0  0  0  0  0  0  0  0  0  0
   30.8196   16.7375    6.4073 N   0  0  0  0  0  0  0  0  0  0  0  0
   30.4242   17.9504    7.1088 C   0  0  0  0  0  0  0  0  0  0  0  0
   31.7214   15.8054    6.9094 C   0  0  0  0  0  0  0  0  0  0  0  0
   32.4667   15.9354    7.8752 O   0  0  0  0  0  0  0  0  0  0  0  0
   31.4545   11.1743    6.1075 C   0  0  0  0  0  0  0  0  0  0  0  0
  1  2  1  0
  2  3  2  0
  3  4  1  0
  4  5  2  0
  5  6  1  0
  6  7  1  0
  7  8  2  0
  7  9  1  0
  9 10  1  0
  5 11  1  0
 11 12  1  0
 13 12  1  1
 13 14  1  0
 14 15  1  0
 15 16  1  0
 16 17  1  0
 16 18  1  0
 18 19  2  0
 11 20  2  0
 20  2  1  0
 18 13  1  0
M  END
>  <original ID>  (69) 
None

>  <RMSD>  (69) 
2.255498

>  <submitter_name>  (69) 
None

>  <original SMILES>  (69) 
Cc1ccc(NC(=O)CS)c(O[C@H]2CCN(C)C2=O)c1

>  <ref_pdb>  (69) 
Ax0310a

>  <method>  (69) 
None

>  <ddG>  (69) 
-67.789326

>  <submitter_email>  (69) 
None

>  <ref_url>  (69) 
None

>  <ref_mols>  (69) 
Ax0732a,Ax0528a

>  <tags>  (69) 
['base']

>  <generation_date>  (69) 
None

$$$$
CN1CC[C@H](Oc2cc(F)ccc2NC(=O)CS)C1=O
     RDKit          3D

 20 21  0  0  0  0  0  0  0  0999 V2000
   31.8283   17.8487    8.2790 C   0  0  0  0  0  0  0  0  0  0  0  0
   32.1970   16.5223    7.8095 N   0  0  0  0  0  0  0  0  0  0  0  0
   32.5292   15.5043    8.7441 C   0  0  0  0  0  0  0  0  0  0  0  0
   32.0003   14.1934    8.2122 C   0  0  0  0  0  0  0  0  0  0  0  0
   31.5448   14.4534    6.7865 C   0  0  2  0  0  0  0  0  0  0  0  0
   32.1924   13.6934    5.7810 O   0  0  0  0  0  0  0  0  0  0  0  0
   32.3679   12.3494    6.0199 C   0  0  0  0  0  0  0  0  0  0  0  0
   31.3572   11.4004    5.9856 C   0  0  0  0  0  0  0  0  0  0  0  0
   31.6508   10.0708    6.3066 C   0  0  0  0  0  0  0  0  0  0  0  0
   30.6657    9.1770    6.4472 F   0  0  0  0  0  0  0  0  0  0  0  0
   32.9545    9.6536    6.5390 C   0  0  0  0  0  0  0  0  0  0  0  0
   33.9794   10.5958    6.5305 C   0  0  0  0  0  0  0  0  0  0  0  0
   33.6764   11.9350    6.2826 C   0  0  0  0  0  0  0  0  0  0  0  0
   34.6474   12.9442    6.3165 N   0  0  0  0  0  0  0  0  0  0  0  0
   35.3873   13.1863    7.4554 C   0  0  0  0  0  0  0  0  0  0  0  0
   35.4980   12.3983    8.3914 O   0  0  0  0  0  0  0  0  0  0  0  0
   36.0789   14.5412    7.4919 C   0  0  0  0  0  0  0  0  0  0  0  0
   35.5231   15.7081    6.2102 S   0  0  0  0  0  0  0  0  0  0  0  0
   31.5975   15.9810    6.6873 C   0  0  0  0  0  0  0  0  0  0  0  0
   31.1012   16.6392    5.7895 O   0  0  0  0  0  0  0  0  0  0  0  0
  1  2  1  0
  2  3  1  0
  3  4  1  0
  4  5  1  0
  5  6  1  6
  6  7  1  0
  7  8  2  0
  8  9  1  0
  9 10  1  0
  9 11  2  0
 11 12  1  0
 12 13  2  0
 13 14  1  0
 14 15  1  0
 15 16  2  0
 15 17  1  0
 17 18  1  0
  5 19  1  0
 19 20  2  0
 19  2  1  0
 13  7  1  0
M  END
>  <original ID>  (70) 
None

>  <RMSD>  (70) 
2.365599

>  <submitter_name>  (70) 
None

>  <original SMILES>  (70) 
CN1CC[C@H](Oc2cc(F)ccc2NC(=O)CS)C1=O

>  <ref_pdb>  (70) 
Ax0310a

>  <method>  (70) 
None

>  <ddG>  (70) 
-6.422732

>  <submitter_email>  (70) 
None

>  <ref_url>  (70) 
None

>  <ref_mols>  (70) 
Ax0732a,Ax0528a

>  <tags>  (70) 
['base']

>  <generation_date>  (70) 
None

$$$$
CN1CC[C@@H](Oc2cc(F)ccc2NC(=O)CS)C1=O
     RDKit          3D

 20 21  0  0  0  0  0  0  0  0999 V2000
   30.9967   18.0674    7.4286 C   0  0  0  0  0  0  0  0  0  0  0  0
   31.2653   16.8201    6.7300 N   0  0  0  0  0  0  0  0  0  0  0  0
   30.3121   16.3149    5.7843 C   0  0  0  0  0  0  0  0  0  0  0  0
   30.6831   14.8608    5.5683 C   0  0  0  0  0  0  0  0  0  0  0  0
   31.5344   14.4291    6.7631 C   0  0  1  0  0  0  0  0  0  0  0  0
   32.5961   13.6427    6.2669 O   0  0  0  0  0  0  0  0  0  0  0  0
   32.6210   12.2798    6.3739 C   0  0  0  0  0  0  0  0  0  0  0  0
   31.5465   11.4160    6.2611 C   0  0  0  0  0  0  0  0  0  0  0  0
   31.7464   10.0398    6.3925 C   0  0  0  0  0  0  0  0  0  0  0  0
   30.6972    9.2273    6.5409 F   0  0  0  0  0  0  0  0  0  0  0  0
   33.0182    9.4893    6.4284 C   0  0  0  0  0  0  0  0  0  0  0  0
   34.1167   10.3378    6.4325 C   0  0  0  0  0  0  0  0  0  0  0  0
   33.9062   11.7175    6.4904 C   0  0  0  0  0  0  0  0  0  0  0  0
   35.0031   12.5649    6.7151 N   0  0  0  0  0  0  0  0  0  0  0  0
   34.9395   13.4601    7.7782 C   0  0  0  0  0  0  0  0  0  0  0  0
   34.1845   13.3183    8.7355 O   0  0  0  0  0  0  0  0  0  0  0  0
   35.9363   14.5890    7.7099 C   0  0  0  0  0  0  0  0  0  0  0  0
   35.6266   15.6429    6.2659 S   0  0  0  0  0  0  0  0  0  0  0  0
   31.9648   15.7835    7.3668 C   0  0  0  0  0  0  0  0  0  0  0  0
   32.7405   15.9435    8.3002 O   0  0  0  0  0  0  0  0  0  0  0  0
  1  2  1  0
  2  3  1  0
  3  4  1  0
  4  5  1  0
  5  6  1  6
  6  7  1  0
  7  8  2  0
  8  9  1  0
  9 10  1  0
  9 11  2  0
 11 12  1  0
 12 13  2  0
 13 14  1  0
 14 15  1  0
 15 16  2  0
 15 17  1  0
 17 18  1  0
  5 19  1  0
 19 20  2  0
 19  2  1  0
 13  7  1  0
M  END
>  <original ID>  (71) 
None

>  <RMSD>  (71) 
2.156076

>  <submitter_name>  (71) 
None

>  <original SMILES>  (71) 
CN1CC[C@@H](Oc2cc(F)ccc2NC(=O)CS)C1=O

>  <ref_pdb>  (71) 
Ax0310a

>  <method>  (71) 
None

>  <ddG>  (71) 
-52.716814

>  <submitter_email>  (71) 
None

>  <ref_url>  (71) 
None

>  <ref_mols>  (71) 
Ax0732a,Ax0528a

>  <tags>  (71) 
['base']

>  <generation_date>  (71) 
None

$$$$
Cc1cccc(O[C@@H]2CCN(C)C2=O)c1NC(=O)CS
     RDKit          3D

 20 21  0  0  0  0  0  0  0  0999 V2000
   35.2204    9.5899    6.3068 C   0  0  0  0  0  0  0  0  0  0  0  0
   33.9020   10.2942    6.2783 C   0  0  0  0  0  0  0  0  0  0  0  0
   32.7464    9.5476    6.0468 C   0  0  0  0  0  0  0  0  0  0  0  0
   31.5223   10.1869    5.9281 C   0  0  0  0  0  0  0  0  0  0  0  0
   31.4349   11.5790    6.0247 C   0  0  0  0  0  0  0  0  0  0  0  0
   32.5461   12.3345    6.3702 C   0  0  0  0  0  0  0  0  0  0  0  0
   32.6101   13.7017    6.4049 O   0  0  0  0  0  0  0  0  0  0  0  0
   31.5292   14.5024    6.8215 C   0  0  2  0  0  0  0  0  0  0  0  0
   30.7259   14.9386    5.5971 C   0  0  0  0  0  0  0  0  0  0  0  0
   30.3259   16.3825    5.8253 C   0  0  0  0  0  0  0  0  0  0  0  0
   31.2684   16.8938    6.7797 N   0  0  0  0  0  0  0  0  0  0  0  0
   30.9766   18.1286    7.4893 C   0  0  0  0  0  0  0  0  0  0  0  0
   31.9634   15.8558    7.4252 C   0  0  0  0  0  0  0  0  0  0  0  0
   32.7305   16.0170    8.3654 O   0  0  0  0  0  0  0  0  0  0  0  0
   33.7838   11.6759    6.5099 C   0  0  0  0  0  0  0  0  0  0  0  0
   34.9243   12.4433    6.8204 N   0  0  0  0  0  0  0  0  0  0  0  0
   34.8908   13.3710    7.8520 C   0  0  0  0  0  0  0  0  0  0  0  0
   34.1033   13.3210    8.7910 O   0  0  0  0  0  0  0  0  0  0  0  0
   35.9523   14.4387    7.7639 C   0  0  0  0  0  0  0  0  0  0  0  0
   35.6349   15.5496    6.3646 S   0  0  0  0  0  0  0  0  0  0  0  0
  1  2  1  0
  2  3  2  0
  3  4  1  0
  4  5  2  0
  5  6  1  0
  6  7  1  0
  8  7  1  6
  8  9  1  0
  9 10  1  0
 10 11  1  0
 11 12  1  0
 11 13  1  0
 13 14  2  0
  6 15  2  0
 15 16  1  0
 16 17  1  0
 17 18  2  0
 17 19  1  0
 19 20  1  0
 15  2  1  0
 13  8  1  0
M  END
>  <original ID>  (72) 
None

>  <RMSD>  (72) 
2.214334

>  <submitter_name>  (72) 
None

>  <original SMILES>  (72) 
Cc1cccc(O[C@@H]2CCN(C)C2=O)c1NC(=O)CS

>  <ref_pdb>  (72) 
Ax0310a

>  <method>  (72) 
None

>  <ddG>  (72) 
-37.96784

>  <submitter_email>  (72) 
None

>  <ref_url>  (72) 
None

>  <ref_mols>  (72) 
Ax0732a,Ax0528a

>  <tags>  (72) 
['base']

>  <generation_date>  (72) 
None

$$$$
Cc1cccc(O[C@H]2CCN(C)C2=O)c1NC(=O)CS
     RDKit          3D

 20 21  0  0  0  0  0  0  0  0999 V2000
   35.4139   10.3408    5.1185 C   0  0  0  0  0  0  0  0  0  0  0  0
   34.0067   10.5565    5.5829 C   0  0  0  0  0  0  0  0  0  0  0  0
   33.1556    9.4396    5.6237 C   0  0  0  0  0  0  0  0  0  0  0  0
   31.8801    9.5544    6.1377 C   0  0  0  0  0  0  0  0  0  0  0  0
   31.4407   10.8006    6.5595 C   0  0  0  0  0  0  0  0  0  0  0  0
   32.2391   11.9468    6.4998 C   0  0  0  0  0  0  0  0  0  0  0  0
   31.6780   13.0986    6.9913 O   0  0  0  0  0  0  0  0  0  0  0  0
   31.8075   14.2898    6.2287 C   0  0  1  0  0  0  0  0  0  0  0  0
   30.6364   14.5023    5.2637 C   0  0  0  0  0  0  0  0  0  0  0  0
   30.3331   15.9896    5.2867 C   0  0  0  0  0  0  0  0  0  0  0  0
   31.0000   16.5152    6.4388 N   0  0  0  0  0  0  0  0  0  0  0  0
   30.6166   17.7880    7.0336 C   0  0  0  0  0  0  0  0  0  0  0  0
   31.8225   15.5776    7.0683 C   0  0  0  0  0  0  0  0  0  0  0  0
   32.4959   15.7776    8.0715 O   0  0  0  0  0  0  0  0  0  0  0  0
   33.5669   11.7978    6.0941 C   0  0  0  0  0  0  0  0  0  0  0  0
   34.5004   12.8413    6.2773 N   0  0  0  0  0  0  0  0  0  0  0  0
   34.6974   13.4049    7.5344 C   0  0  0  0  0  0  0  0  0  0  0  0
   34.2617   12.9229    8.5744 O   0  0  0  0  0  0  0  0  0  0  0  0
   35.6428   14.5871    7.5753 C   0  0  0  0  0  0  0  0  0  0  0  0
   35.4614   15.6981    6.1535 S   0  0  0  0  0  0  0  0  0  0  0  0
  1  2  1  0
  2  3  2  0
  3  4  1  0
  4  5  2  0
  5  6  1  0
  6  7  1  0
  8  7  1  1
  8  9  1  0
  9 10  1  0
 10 11  1  0
 11 12  1  0
 11 13  1  0
 13 14  2  0
  6 15  2  0
 15 16  1  0
 16 17  1  0
 17 18  2  0
 17 19  1  0
 19 20  1  0
 15  2  1  0
 13  8  1  0
M  END
>  <original ID>  (73) 
None

>  <RMSD>  (73) 
2.146833

>  <submitter_name>  (73) 
None

>  <original SMILES>  (73) 
Cc1cccc(O[C@H]2CCN(C)C2=O)c1NC(=O)CS

>  <ref_pdb>  (73) 
Ax0310a

>  <method>  (73) 
None

>  <ddG>  (73) 
-36.967463

>  <submitter_email>  (73) 
None

>  <ref_url>  (73) 
None

>  <ref_mols>  (73) 
Ax0732a,Ax0528a

>  <tags>  (73) 
['base']

>  <generation_date>  (73) 
None

$$$$
Cc1cc(C)c(NC(=O)CS)c(O[C@@H]2CCN(C)C2=O)c1
     RDKit          3D

 21 22  0  0  0  0  0  0  0  0999 V2000
   30.9811    9.0150    6.1791 C   0  0  0  0  0  0  0  0  0  0  0  0
   32.0184   10.0729    6.2554 C   0  0  0  0  0  0  0  0  0  0  0  0
   33.3469    9.6581    6.3280 C   0  0  0  0  0  0  0  0  0  0  0  0
   34.3662   10.5952    6.3664 C   0  0  0  0  0  0  0  0  0  0  0  0
   35.7800   10.1226    6.3755 C   0  0  0  0  0  0  0  0  0  0  0  0
   34.0147   11.9434    6.4161 C   0  0  0  0  0  0  0  0  0  0  0  0
   34.9690   12.9722    6.5227 N   0  0  0  0  0  0  0  0  0  0  0  0
   35.4656   13.2484    7.7873 C   0  0  0  0  0  0  0  0  0  0  0  0
   35.6471   12.4005    8.6570 O   0  0  0  0  0  0  0  0  0  0  0  0
   35.7509   14.7237    8.0433 C   0  0  0  0  0  0  0  0  0  0  0  0
   35.7406   15.7438    6.5265 S   0  0  0  0  0  0  0  0  0  0  0  0
   32.6874   12.3854    6.3386 C   0  0  0  0  0  0  0  0  0  0  0  0
   32.6091   13.7458    6.3332 O   0  0  0  0  0  0  0  0  0  0  0  0
   31.5085   14.4749    6.8082 C   0  0  2  0  0  0  0  0  0  0  0  0
   30.6975   14.9447    5.6062 C   0  0  0  0  0  0  0  0  0  0  0  0
   30.3516   16.3999    5.8562 C   0  0  0  0  0  0  0  0  0  0  0  0
   31.3109   16.8644    6.8228 N   0  0  0  0  0  0  0  0  0  0  0  0
   31.0591   18.1009    7.5448 C   0  0  0  0  0  0  0  0  0  0  0  0
   31.9488   15.7919    7.4678 C   0  0  0  0  0  0  0  0  0  0  0  0
   32.6567   15.8736    8.4639 O   0  0  0  0  0  0  0  0  0  0  0  0
   31.6870   11.4422    6.2140 C   0  0  0  0  0  0  0  0  0  0  0  0
  1  2  1  0
  2  3  2  0
  3  4  1  0
  4  5  1  0
  4  6  2  0
  6  7  1  0
  7  8  1  0
  8  9  2  0
  8 10  1  0
 10 11  1  0
  6 12  1  0
 12 13  1  0
 14 13  1  6
 14 15  1  0
 15 16  1  0
 16 17  1  0
 17 18  1  0
 17 19  1  0
 19 20  2  0
 12 21  2  0
 21  2  1  0
 19 14  1  0
M  END
>  <original ID>  (74) 
None

>  <RMSD>  (74) 
2.213438

>  <submitter_name>  (74) 
None

>  <original SMILES>  (74) 
Cc1cc(C)c(NC(=O)CS)c(O[C@@H]2CCN(C)C2=O)c1

>  <ref_pdb>  (74) 
Ax0310a

>  <method>  (74) 
None

>  <ddG>  (74) 
-38.641734

>  <submitter_email>  (74) 
None

>  <ref_url>  (74) 
None

>  <ref_mols>  (74) 
Ax0732a,Ax0528a

>  <tags>  (74) 
['base']

>  <generation_date>  (74) 
None

$$$$
Cc1cc(C)c(NC(=O)CS)c(O[C@@H]2CCN(C)C2=O)c1
     RDKit          3D

 21 22  0  0  0  0  0  0  0  0999 V2000
   30.9798    9.0261    6.1797 C   0  0  0  0  0  0  0  0  0  0  0  0
   32.0164   10.0852    6.2499 C   0  0  0  0  0  0  0  0  0  0  0  0
   33.3439    9.6701    6.3257 C   0  0  0  0  0  0  0  0  0  0  0  0
   34.3625   10.6074    6.3626 C   0  0  0  0  0  0  0  0  0  0  0  0
   35.7769   10.1354    6.3794 C   0  0  0  0  0  0  0  0  0  0  0  0
   34.0133   11.9576    6.4058 C   0  0  0  0  0  0  0  0  0  0  0  0
   34.9783   12.9747    6.5294 N   0  0  0  0  0  0  0  0  0  0  0  0
   35.4390   13.2503    7.8068 C   0  0  0  0  0  0  0  0  0  0  0  0
   35.5287   12.4111    8.7003 O   0  0  0  0  0  0  0  0  0  0  0  0
   35.8698   14.6909    8.0403 C   0  0  0  0  0  0  0  0  0  0  0  0
   35.5422   15.8154    6.6448 S   0  0  0  0  0  0  0  0  0  0  0  0
   32.6871   12.4004    6.3208 C   0  0  0  0  0  0  0  0  0  0  0  0
   32.6020   13.7603    6.3093 O   0  0  0  0  0  0  0  0  0  0  0  0
   31.4918   14.4802    6.7792 C   0  0  2  0  0  0  0  0  0  0  0  0
   30.6664   14.9323    5.5800 C   0  0  0  0  0  0  0  0  0  0  0  0
   30.3041   16.3858    5.8231 C   0  0  0  0  0  0  0  0  0  0  0  0
   31.2641   16.8666    6.7801 N   0  0  0  0  0  0  0  0  0  0  0  0
   31.0046   18.1043    7.4983 C   0  0  0  0  0  0  0  0  0  0  0  0
   31.9311   15.8078    7.4131 C   0  0  0  0  0  0  0  0  0  0  0  0
   32.6950   15.9148    8.3651 O   0  0  0  0  0  0  0  0  0  0  0  0
   31.6867   11.4550    6.1997 C   0  0  0  0  0  0  0  0  0  0  0  0
  1  2  1  0
  2  3  2  0
  3  4  1  0
  4  5  1  0
  4  6  2  0
  6  7  1  0
  7  8  1  0
  8  9  2  0
  8 10  1  0
 10 11  1  0
  6 12  1  0
 12 13  1  0
 14 13  1  6
 14 15  1  0
 15 16  1  0
 16 17  1  0
 17 18  1  0
 17 19  1  0
 19 20  2  0
 12 21  2  0
 21  2  1  0
 19 14  1  0
M  END
>  <original ID>  (75) 
None

>  <RMSD>  (75) 
2.218086

>  <submitter_name>  (75) 
None

>  <original SMILES>  (75) 
Cc1cc(C)c(NC(=O)CS)c(O[C@@H]2CCN(C)C2=O)c1

>  <ref_pdb>  (75) 
Ax0310a

>  <method>  (75) 
None

>  <ddG>  (75) 
-25.837119

>  <submitter_email>  (75) 
None

>  <ref_url>  (75) 
None

>  <ref_mols>  (75) 
Ax0732a,Ax0528a

>  <tags>  (75) 
['base']

>  <generation_date>  (75) 
None

$$$$
Cc1cc(O[C@@H]2CCN(C)C2=O)c(NC(=O)CS)c(C)n1
     RDKit          3D

 21 22  0  0  0  0  0  0  0  0999 V2000
   30.9994    9.0444    6.1747 C   0  0  0  0  0  0  0  0  0  0  0  0
   32.0003   10.1336    6.2443 C   0  0  0  0  0  0  0  0  0  0  0  0
   31.6481   11.4836    6.1733 C   0  0  0  0  0  0  0  0  0  0  0  0
   32.6518   12.4200    6.3093 C   0  0  0  0  0  0  0  0  0  0  0  0
   32.5753   13.7805    6.2655 O   0  0  0  0  0  0  0  0  0  0  0  0
   31.4745   14.5080    6.7483 C   0  0  2  0  0  0  0  0  0  0  0  0
   30.6393   14.9651    5.5584 C   0  0  0  0  0  0  0  0  0  0  0  0
   30.2690   16.4138    5.8178 C   0  0  0  0  0  0  0  0  0  0  0  0
   31.2368   16.8925    6.7684 N   0  0  0  0  0  0  0  0  0  0  0  0
   30.9782   18.1230    7.4988 C   0  0  0  0  0  0  0  0  0  0  0  0
   31.9188   15.8331    7.3839 C   0  0  0  0  0  0  0  0  0  0  0  0
   32.6965   15.9352    8.3252 O   0  0  0  0  0  0  0  0  0  0  0  0
   33.9661   11.9691    6.4336 C   0  0  0  0  0  0  0  0  0  0  0  0
   34.9502   12.9704    6.5422 N   0  0  0  0  0  0  0  0  0  0  0  0
   35.4172   13.2525    7.8145 C   0  0  0  0  0  0  0  0  0  0  0  0
   35.4861   12.4199    8.7152 O   0  0  0  0  0  0  0  0  0  0  0  0
   35.8809   14.6852    8.0314 C   0  0  0  0  0  0  0  0  0  0  0  0
   35.5449   15.8061    6.6353 S   0  0  0  0  0  0  0  0  0  0  0  0
   34.2461   10.6104    6.4211 C   0  0  0  0  0  0  0  0  0  0  0  0
   35.6352   10.0746    6.4150 C   0  0  0  0  0  0  0  0  0  0  0  0
   33.2662    9.6947    6.3476 N   0  0  0  0  0  0  0  0  0  0  0  0
  1  2  1  0
  2  3  2  0
  3  4  1  0
  4  5  1  0
  6  5  1  6
  6  7  1  0
  7  8  1  0
  8  9  1  0
  9 10  1  0
  9 11  1  0
 11 12  2  0
  4 13  2  0
 13 14  1  0
 14 15  1  0
 15 16  2  0
 15 17  1  0
 17 18  1  0
 13 19  1  0
 19 20  1  0
 19 21  2  0
 21  2  1  0
 11  6  1  0
M  END
>  <original ID>  (76) 
None

>  <RMSD>  (76) 
2.209673

>  <submitter_name>  (76) 
None

>  <original SMILES>  (76) 
Cc1cc(O[C@@H]2CCN(C)C2=O)c(NC(=O)CS)c(C)n1

>  <ref_pdb>  (76) 
Ax0310a

>  <method>  (76) 
None

>  <ddG>  (76) 
-44.116331

>  <submitter_email>  (76) 
None

>  <ref_url>  (76) 
None

>  <ref_mols>  (76) 
Ax0732a,Ax0528a

>  <tags>  (76) 
['base']

>  <generation_date>  (76) 
None

$$$$
Cc1cc(O[C@@H]2CCN(C)C2=O)c(NC(=O)CS)c(C)n1
     RDKit          3D

 21 22  0  0  0  0  0  0  0  0999 V2000
   31.0257    9.0474    6.2326 C   0  0  0  0  0  0  0  0  0  0  0  0
   31.9467   10.2036    6.2415 C   0  0  0  0  0  0  0  0  0  0  0  0
   31.5230   11.5125    6.0271 C   0  0  0  0  0  0  0  0  0  0  0  0
   32.4640   12.5149    6.1506 C   0  0  0  0  0  0  0  0  0  0  0  0
   32.2893   13.8313    5.8283 O   0  0  0  0  0  0  0  0  0  0  0  0
   31.3489   14.6288    6.5071 C   0  0  2  0  0  0  0  0  0  0  0  0
   30.4422   15.2059    5.4246 C   0  0  0  0  0  0  0  0  0  0  0  0
   30.0925   16.6156    5.8520 C   0  0  0  0  0  0  0  0  0  0  0  0
   31.1482   17.0038    6.7503 N   0  0  0  0  0  0  0  0  0  0  0  0
   30.9761   18.1779    7.5888 C   0  0  0  0  0  0  0  0  0  0  0  0
   31.8695   15.8914    7.2143 C   0  0  0  0  0  0  0  0  0  0  0  0
   32.6993   15.8909    8.1139 O   0  0  0  0  0  0  0  0  0  0  0  0
   33.7828   12.1759    6.4446 C   0  0  0  0  0  0  0  0  0  0  0  0
   34.6409   13.2683    6.6181 N   0  0  0  0  0  0  0  0  0  0  0  0
   35.3732   13.4407    7.7726 C   0  0  0  0  0  0  0  0  0  0  0  0
   35.6369   12.5511    8.5747 O   0  0  0  0  0  0  0  0  0  0  0  0
   35.7912   14.8831    8.0178 C   0  0  0  0  0  0  0  0  0  0  0  0
   35.8579   15.8736    6.4828 S   0  0  0  0  0  0  0  0  0  0  0  0
   34.1472   10.8385    6.5118 C   0  0  0  0  0  0  0  0  0  0  0  0
   35.5552   10.3593    6.5908 C   0  0  0  0  0  0  0  0  0  0  0  0
   33.2288    9.8599    6.4379 N   0  0  0  0  0  0  0  0  0  0  0  0
  1  2  1  0
  2  3  2  0
  3  4  1  0
  4  5  1  0
  6  5  1  6
  6  7  1  0
  7  8  1  0
  8  9  1  0
  9 10  1  0
  9 11  1  0
 11 12  2  0
  4 13  2  0
 13 14  1  0
 14 15  1  0
 15 16  2  0
 15 17  1  0
 17 18  1  0
 13 19  1  0
 19 20  1  0
 19 21  2  0
 21  2  1  0
 11  6  1  0
M  END
>  <original ID>  (77) 
None

>  <RMSD>  (77) 
2.273995

>  <submitter_name>  (77) 
None

>  <original SMILES>  (77) 
Cc1cc(O[C@@H]2CCN(C)C2=O)c(NC(=O)CS)c(C)n1

>  <ref_pdb>  (77) 
Ax0310a

>  <method>  (77) 
None

>  <ddG>  (77) 
-50.247582

>  <submitter_email>  (77) 
None

>  <ref_url>  (77) 
None

>  <ref_mols>  (77) 
Ax0732a,Ax0528a

>  <tags>  (77) 
['base']

>  <generation_date>  (77) 
None

$$$$
CC(=O)Nc1cccc(O)c1NC(=O)CS
     RDKit          3D

 16 16  0  0  0  0  0  0  0  0999 V2000
   30.6981   15.7077    5.9100 C   0  0  0  0  0  0  0  0  0  0  0  0
   30.6393   14.2215    5.6999 C   0  0  0  0  0  0  0  0  0  0  0  0
   29.7798   13.7177    4.9857 O   0  0  0  0  0  0  0  0  0  0  0  0
   31.6921   13.5625    6.2954 N   0  0  0  0  0  0  0  0  0  0  0  0
   32.0552   12.1997    6.1505 C   0  0  0  0  0  0  0  0  0  0  0  0
   31.1725   11.1978    5.7598 C   0  0  0  0  0  0  0  0  0  0  0  0
   31.5448    9.8510    5.8114 C   0  0  0  0  0  0  0  0  0  0  0  0
   32.8384    9.5031    6.1671 C   0  0  0  0  0  0  0  0  0  0  0  0
   33.7529   10.5036    6.4717 C   0  0  0  0  0  0  0  0  0  0  0  0
   35.0302   10.0902    6.6977 O   0  0  0  0  0  0  0  0  0  0  0  0
   33.3721   11.8507    6.4789 C   0  0  0  0  0  0  0  0  0  0  0  0
   34.2521   12.9282    6.6855 N   0  0  0  0  0  0  0  0  0  0  0  0
   35.2359   13.0204    7.6309 C   0  0  0  0  0  0  0  0  0  0  0  0
   35.6071   12.0743    8.3203 O   0  0  0  0  0  0  0  0  0  0  0  0
   35.8742   14.3979    7.7494 C   0  0  0  0  0  0  0  0  0  0  0  0
   34.9337   15.7173    6.9138 S   0  0  0  0  0  0  0  0  0  0  0  0
  1  2  1  0
  2  3  2  0
  2  4  1  0
  4  5  1  0
  5  6  2  0
  6  7  1  0
  7  8  2  0
  8  9  1  0
  9 10  1  0
  9 11  2  0
 11 12  1  0
 12 13  1  0
 13 14  2  0
 13 15  1  0
 15 16  1  0
 11  5  1  0
M  END
>  <original ID>  (78) 
None

>  <RMSD>  (78) 
2.038218

>  <submitter_name>  (78) 
None

>  <original SMILES>  (78) 
CC(=O)Nc1cccc(O)c1NC(=O)CS

>  <ref_pdb>  (78) 
Ax0310a

>  <method>  (78) 
None

>  <ddG>  (78) 
-32.316871

>  <submitter_email>  (78) 
None

>  <ref_url>  (78) 
None

>  <ref_mols>  (78) 
Ax0732a,Ax0884a

>  <tags>  (78) 
['base']

>  <generation_date>  (78) 
None

$$$$
Cc1cc(NC(=O)CO)cc(OCC(=O)N(C)C)c1
     RDKit          3D

 19 19  0  0  0  0  0  0  0  0999 V2000
   31.8153    8.7716    5.3219 C   0  0  0  0  0  0  0  0  0  0  0  0
   32.4099   10.0949    5.6945 C   0  0  0  0  0  0  0  0  0  0  0  0
   33.7306   10.1955    6.1432 C   0  0  0  0  0  0  0  0  0  0  0  0
   34.2733   11.4339    6.5167 C   0  0  0  0  0  0  0  0  0  0  0  0
   35.5885   11.4324    7.0046 N   0  0  0  0  0  0  0  0  0  0  0  0
   36.3229   12.3461    7.7018 C   0  0  0  0  0  0  0  0  0  0  0  0
   37.5222   12.0949    7.8813 O   0  0  0  0  0  0  0  0  0  0  0  0
   35.7468   13.6450    8.2528 C   0  0  0  0  0  0  0  0  0  0  0  0
   35.8692   14.7145    7.3216 O   0  0  0  0  0  0  0  0  0  0  0  0
   33.5004   12.5798    6.3782 C   0  0  0  0  0  0  0  0  0  0  0  0
   32.1654   12.4904    6.0106 C   0  0  0  0  0  0  0  0  0  0  0  0
   31.2898   13.5307    5.9737 O   0  0  0  0  0  0  0  0  0  0  0  0
   31.6911   14.8096    6.4372 C   0  0  0  0  0  0  0  0  0  0  0  0
   32.2257   15.0763    7.8769 C   0  0  0  0  0  0  0  0  0  0  0  0
   32.3479   14.1789    8.7121 O   0  0  0  0  0  0  0  0  0  0  0  0
   32.6467   16.3909    8.1353 N   0  0  0  0  0  0  0  0  0  0  0  0
   33.3437   16.6613    9.3750 C   0  0  0  0  0  0  0  0  0  0  0  0
   32.0457   17.5487    7.4970 C   0  0  0  0  0  0  0  0  0  0  0  0
   31.6300   11.2517    5.6549 C   0  0  0  0  0  0  0  0  0  0  0  0
  1  2  1  0
  2  3  2  0
  3  4  1  0
  4  5  1  0
  5  6  1  0
  6  7  2  0
  6  8  1  0
  8  9  1  0
  4 10  2  0
 10 11  1  0
 11 12  1  0
 12 13  1  0
 13 14  1  0
 14 15  2  0
 14 16  1  0
 16 17  1  0
 16 18  1  0
 11 19  2  0
 19  2  1  0
M  END
>  <original ID>  (79) 
None

>  <RMSD>  (79) 
3.075677

>  <submitter_name>  (79) 
None

>  <original SMILES>  (79) 
Cc1cc(NC(=O)CO)cc(OCC(=O)N(C)C)c1

>  <ref_pdb>  (79) 
Ax0310a

>  <method>  (79) 
None

>  <ddG>  (79) 
-18.029972

>  <submitter_email>  (79) 
None

>  <ref_url>  (79) 
None

>  <ref_mols>  (79) 
Ax0732a,Ax0922a

>  <tags>  (79) 
['base']

>  <generation_date>  (79) 
None

$$$$
Cc1cnc(OCC(=O)N(C)C)cc1NC(=O)CO
     RDKit          3D

 19 19  0  0  0  0  0  0  0  0999 V2000
   36.4492   11.5775    6.5274 C   0  0  0  0  0  0  0  0  0  0  0  0
   35.0289   11.9248    6.2198 C   0  0  0  0  0  0  0  0  0  0  0  0
   34.4293   11.2153    5.1823 C   0  0  0  0  0  0  0  0  0  0  0  0
   33.1744   11.4117    4.7477 N   0  0  0  0  0  0  0  0  0  0  0  0
   32.4514   12.3340    5.3913 C   0  0  0  0  0  0  0  0  0  0  0  0
   31.1025   12.4231    5.1477 O   0  0  0  0  0  0  0  0  0  0  0  0
   30.6571   11.5240    4.1617 C   0  0  0  0  0  0  0  0  0  0  0  0
   30.9244   10.0050    4.1591 C   0  0  0  0  0  0  0  0  0  0  0  0
   30.9452    9.4272    3.0640 O   0  0  0  0  0  0  0  0  0  0  0  0
   31.0622    9.2875    5.3265 N   0  0  0  0  0  0  0  0  0  0  0  0
   31.0463    9.8032    6.6723 C   0  0  0  0  0  0  0  0  0  0  0  0
   31.3529    7.8850    5.2290 C   0  0  0  0  0  0  0  0  0  0  0  0
   32.9385   13.1130    6.4126 C   0  0  0  0  0  0  0  0  0  0  0  0
   34.2486   12.9038    6.8500 C   0  0  0  0  0  0  0  0  0  0  0  0
   34.6304   13.7702    7.8850 N   0  0  0  0  0  0  0  0  0  0  0  0
   35.6833   13.7215    8.7726 C   0  0  0  0  0  0  0  0  0  0  0  0
   36.4783   12.8103    8.9506 O   0  0  0  0  0  0  0  0  0  0  0  0
   35.7510   15.0174    9.5836 C   0  0  0  0  0  0  0  0  0  0  0  0
   35.2804   16.1325    8.8222 O   0  0  0  0  0  0  0  0  0  0  0  0
  1  2  1  0
  2  3  2  0
  3  4  1  0
  4  5  2  0
  5  6  1  0
  6  7  1  0
  7  8  1  0
  8  9  2  0
  8 10  1  0
 10 11  1  0
 10 12  1  0
  5 13  1  0
 13 14  2  0
 14 15  1  0
 15 16  1  0
 16 17  2  0
 16 18  1  0
 18 19  1  0
 14  2  1  0
M  END
>  <original ID>  (80) 
None

>  <RMSD>  (80) 
3.398132

>  <submitter_name>  (80) 
None

>  <original SMILES>  (80) 
Cc1cnc(OCC(=O)N(C)C)cc1NC(=O)CO

>  <ref_pdb>  (80) 
Ax0310a

>  <method>  (80) 
None

>  <ddG>  (80) 
-18.976781

>  <submitter_email>  (80) 
None

>  <ref_url>  (80) 
None

>  <ref_mols>  (80) 
Ax0732a,Ax0922a

>  <tags>  (80) 
['base']

>  <generation_date>  (80) 
None

$$$$
CN(C)C(=O)COCC(=O)Nc1cccc(O)c1
     RDKit          3D

 18 18  0  0  0  0  0  0  0  0999 V2000
   36.7774   18.6533    3.4910 C   0  0  0  0  0  0  0  0  0  0  0  0
   36.0312   18.4035    4.7134 N   0  0  0  0  0  0  0  0  0  0  0  0
   36.1237   19.4294    5.7399 C   0  0  0  0  0  0  0  0  0  0  0  0
   35.5922   17.0992    4.9603 C   0  0  0  0  0  0  0  0  0  0  0  0
   35.7632   16.1878    4.1487 O   0  0  0  0  0  0  0  0  0  0  0  0
   34.8593   16.8572    6.2962 C   0  0  0  0  0  0  0  0  0  0  0  0
   34.4115   15.5278    6.5230 O   0  0  0  0  0  0  0  0  0  0  0  0
   35.3834   14.7495    7.2106 C   0  0  0  0  0  0  0  0  0  0  0  0
   35.0545   13.2600    7.2255 C   0  0  0  0  0  0  0  0  0  0  0  0
   35.7654   12.4631    7.8324 O   0  0  0  0  0  0  0  0  0  0  0  0
   33.9097   12.9513    6.5147 N   0  0  0  0  0  0  0  0  0  0  0  0
   33.4207   11.6479    6.3682 C   0  0  0  0  0  0  0  0  0  0  0  0
   34.2663   10.5480    6.2015 C   0  0  0  0  0  0  0  0  0  0  0  0
   33.7480    9.2543    6.1681 C   0  0  0  0  0  0  0  0  0  0  0  0
   32.3938    9.0576    6.3761 C   0  0  0  0  0  0  0  0  0  0  0  0
   31.5792   10.1557    6.5921 C   0  0  0  0  0  0  0  0  0  0  0  0
   30.3404    9.9668    7.1096 O   0  0  0  0  0  0  0  0  0  0  0  0
   32.0524   11.4536    6.4767 C   0  0  0  0  0  0  0  0  0  0  0  0
  1  2  1  0
  2  3  1  0
  2  4  1  0
  4  5  2  0
  4  6  1  0
  6  7  1  0
  7  8  1  0
  8  9  1  0
  9 10  2  0
  9 11  1  0
 11 12  1  0
 12 13  2  0
 13 14  1  0
 14 15  2  0
 15 16  1  0
 16 17  1  0
 16 18  2  0
 18 12  1  0
M  END
>  <original ID>  (81) 
None

>  <RMSD>  (81) 
1.653188

>  <submitter_name>  (81) 
None

>  <original SMILES>  (81) 
CN(C)C(=O)COCC(=O)Nc1cccc(O)c1

>  <ref_pdb>  (81) 
Ax0310a

>  <method>  (81) 
None

>  <ddG>  (81) 
-17.242108

>  <submitter_email>  (81) 
None

>  <ref_url>  (81) 
None

>  <ref_mols>  (81) 
Ax0732a,Ax0922a

>  <tags>  (81) 
['base']

>  <generation_date>  (81) 
None

$$$$
Cc1ccc(OCC(=O)N(C)C)cc1NC(=O)CO
     RDKit          3D

 19 19  0  0  0  0  0  0  0  0999 V2000
   34.2271   10.0084    3.9353 C   0  0  0  0  0  0  0  0  0  0  0  0
   33.4432   10.7326    4.9761 C   0  0  0  0  0  0  0  0  0  0  0  0
   32.0467   10.6111    4.9580 C   0  0  0  0  0  0  0  0  0  0  0  0
   31.2799   11.3795    5.8179 C   0  0  0  0  0  0  0  0  0  0  0  0
   31.9124   12.1834    6.7417 C   0  0  0  0  0  0  0  0  0  0  0  0
   31.2783   13.0108    7.6041 O   0  0  0  0  0  0  0  0  0  0  0  0
   31.6188   14.3786    7.3853 C   0  0  0  0  0  0  0  0  0  0  0  0
   32.2036   14.9946    8.6597 C   0  0  0  0  0  0  0  0  0  0  0  0
   32.7001   14.2567    9.5145 O   0  0  0  0  0  0  0  0  0  0  0  0
   32.2907   16.3847    8.7687 N   0  0  0  0  0  0  0  0  0  0  0  0
   33.0592   16.9844    9.8336 C   0  0  0  0  0  0  0  0  0  0  0  0
   31.6158   17.3455    7.9104 C   0  0  0  0  0  0  0  0  0  0  0  0
   33.2667   12.1575    6.8862 C   0  0  0  0  0  0  0  0  0  0  0  0
   34.0465   11.5526    5.9397 C   0  0  0  0  0  0  0  0  0  0  0  0
   35.4048   11.9351    5.9215 N   0  0  0  0  0  0  0  0  0  0  0  0
   35.8863   12.8112    6.8928 C   0  0  0  0  0  0  0  0  0  0  0  0
   35.9842   12.5273    8.0854 O   0  0  0  0  0  0  0  0  0  0  0  0
   36.1382   14.2356    6.4038 C   0  0  0  0  0  0  0  0  0  0  0  0
   35.0988   15.1272    6.7682 O   0  0  0  0  0  0  0  0  0  0  0  0
  1  2  1  0
  2  3  2  0
  3  4  1  0
  4  5  2  0
  5  6  1  0
  6  7  1  0
  7  8  1  0
  8  9  2  0
  8 10  1  0
 10 11  1  0
 10 12  1  0
  5 13  1  0
 13 14  2  0
 14 15  1  0
 15 16  1  0
 16 17  2  0
 16 18  1  0
 18 19  1  0
 14  2  1  0
M  END
>  <original ID>  (82) 
None

>  <RMSD>  (82) 
2.624373

>  <submitter_name>  (82) 
None

>  <original SMILES>  (82) 
Cc1ccc(OCC(=O)N(C)C)cc1NC(=O)CO

>  <ref_pdb>  (82) 
Ax0310a

>  <method>  (82) 
None

>  <ddG>  (82) 
8.002545

>  <submitter_email>  (82) 
None

>  <ref_url>  (82) 
None

>  <ref_mols>  (82) 
Ax0732a,Ax0922a

>  <tags>  (82) 
['base']

>  <generation_date>  (82) 
None

$$$$
Cc1ccc(NC(=O)COCC(=O)N(C)C)cc1O
     RDKit          3D

 19 19  0  0  0  0  0  0  0  0999 V2000
   31.0967    8.2201    5.3552 C   0  0  0  0  0  0  0  0  0  0  0  0
   32.0221    9.2697    5.8575 C   0  0  0  0  0  0  0  0  0  0  0  0
   33.3816    9.1398    5.6600 C   0  0  0  0  0  0  0  0  0  0  0  0
   34.2268   10.1456    6.1025 C   0  0  0  0  0  0  0  0  0  0  0  0
   33.7263   11.3541    6.6008 C   0  0  0  0  0  0  0  0  0  0  0  0
   34.6694   12.1525    7.2587 N   0  0  0  0  0  0  0  0  0  0  0  0
   34.6236   13.4081    7.7781 C   0  0  0  0  0  0  0  0  0  0  0  0
   35.3478   13.6433    8.7475 O   0  0  0  0  0  0  0  0  0  0  0  0
   33.9269   14.5236    7.0079 C   0  0  0  0  0  0  0  0  0  0  0  0
   34.7947   15.2382    6.1193 O   0  0  0  0  0  0  0  0  0  0  0  0
   35.5643   14.4020    5.2594 C   0  0  0  0  0  0  0  0  0  0  0  0
   34.8135   13.3852    4.3677 C   0  0  0  0  0  0  0  0  0  0  0  0
   33.6011   13.4992    4.1739 O   0  0  0  0  0  0  0  0  0  0  0  0
   35.5483   12.3381    3.8151 N   0  0  0  0  0  0  0  0  0  0  0  0
   36.9839   12.1644    3.9513 C   0  0  0  0  0  0  0  0  0  0  0  0
   34.8458   11.3218    3.0456 C   0  0  0  0  0  0  0  0  0  0  0  0
   32.3608   11.5542    6.6616 C   0  0  0  0  0  0  0  0  0  0  0  0
   31.5677   10.4292    6.4715 C   0  0  0  0  0  0  0  0  0  0  0  0
   30.4096   10.3723    7.1749 O   0  0  0  0  0  0  0  0  0  0  0  0
  1  2  1  0
  2  3  2  0
  3  4  1  0
  4  5  2  0
  5  6  1  0
  6  7  1  0
  7  8  2  0
  7  9  1  0
  9 10  1  0
 10 11  1  0
 11 12  1  0
 12 13  2  0
 12 14  1  0
 14 15  1  0
 14 16  1  0
  5 17  1  0
 17 18  2  0
 18 19  1  0
 18  2  1  0
M  END
>  <original ID>  (83) 
None

>  <RMSD>  (83) 
2.09154

>  <submitter_name>  (83) 
None

>  <original SMILES>  (83) 
Cc1ccc(NC(=O)COCC(=O)N(C)C)cc1O

>  <ref_pdb>  (83) 
Ax0310a

>  <method>  (83) 
None

>  <ddG>  (83) 
-0.040608

>  <submitter_email>  (83) 
None

>  <ref_url>  (83) 
None

>  <ref_mols>  (83) 
Ax0732a,Ax0922a

>  <tags>  (83) 
['base']

>  <generation_date>  (83) 
None

$$$$
Cc1cc(C)c(NC(=O)COCC(=O)N(C)C)cc1O
     RDKit          3D

 20 20  0  0  0  0  0  0  0  0999 V2000
   31.1301    8.2209    5.3943 C   0  0  0  0  0  0  0  0  0  0  0  0
   32.0382    9.3455    5.7364 C   0  0  0  0  0  0  0  0  0  0  0  0
   33.3206    9.3860    5.2049 C   0  0  0  0  0  0  0  0  0  0  0  0
   34.1467   10.4968    5.4101 C   0  0  0  0  0  0  0  0  0  0  0  0
   35.5456   10.4509    4.8857 C   0  0  0  0  0  0  0  0  0  0  0  0
   33.6543   11.6002    6.1172 C   0  0  0  0  0  0  0  0  0  0  0  0
   34.4488   12.7315    6.3075 N   0  0  0  0  0  0  0  0  0  0  0  0
   34.3546   13.6235    7.3629 C   0  0  0  0  0  0  0  0  0  0  0  0
   33.7764   13.4212    8.4221 O   0  0  0  0  0  0  0  0  0  0  0  0
   35.1242   14.9061    7.0837 C   0  0  0  0  0  0  0  0  0  0  0  0
   35.3463   15.0149    5.6727 O   0  0  0  0  0  0  0  0  0  0  0  0
   34.5245   15.9657    5.0275 C   0  0  0  0  0  0  0  0  0  0  0  0
   33.0179   16.1357    5.3302 C   0  0  0  0  0  0  0  0  0  0  0  0
   32.6858   16.9679    6.1791 O   0  0  0  0  0  0  0  0  0  0  0  0
   32.0924   15.3967    4.6111 N   0  0  0  0  0  0  0  0  0  0  0  0
   30.6790   15.7157    4.7560 C   0  0  0  0  0  0  0  0  0  0  0  0
   32.4133   14.3447    3.6615 C   0  0  0  0  0  0  0  0  0  0  0  0
   32.3571   11.5836    6.5951 C   0  0  0  0  0  0  0  0  0  0  0  0
   31.6060   10.4273    6.4771 C   0  0  0  0  0  0  0  0  0  0  0  0
   30.4559   10.3085    7.1746 O   0  0  0  0  0  0  0  0  0  0  0  0
  1  2  1  0
  2  3  2  0
  3  4  1  0
  4  5  1  0
  4  6  2  0
  6  7  1  0
  7  8  1  0
  8  9  2  0
  8 10  1  0
 10 11  1  0
 11 12  1  0
 12 13  1  0
 13 14  2  0
 13 15  1  0
 15 16  1  0
 15 17  1  0
  6 18  1  0
 18 19  2  0
 19 20  1  0
 19  2  1  0
M  END
>  <original ID>  (84) 
None

>  <RMSD>  (84) 
1.835201

>  <submitter_name>  (84) 
None

>  <original SMILES>  (84) 
Cc1cc(C)c(NC(=O)COCC(=O)N(C)C)cc1O

>  <ref_pdb>  (84) 
Ax0310a

>  <method>  (84) 
None

>  <ddG>  (84) 
-27.560904

>  <submitter_email>  (84) 
None

>  <ref_url>  (84) 
None

>  <ref_mols>  (84) 
Ax0732a,Ax0922a

>  <tags>  (84) 
['base']

>  <generation_date>  (84) 
None

$$$$
Cc1cc(NC(=O)CS)cc(OCC(=O)N(C)C)c1
     RDKit          3D

 19 19  0  0  0  0  0  0  0  0999 V2000
   32.3249    8.6496    6.2629 C   0  0  0  0  0  0  0  0  0  0  0  0
   32.6590   10.1001    6.1843 C   0  0  0  0  0  0  0  0  0  0  0  0
   33.9922   10.5263    6.2153 C   0  0  0  0  0  0  0  0  0  0  0  0
   34.2802   11.8860    6.1430 C   0  0  0  0  0  0  0  0  0  0  0  0
   35.5426   12.4403    6.4156 N   0  0  0  0  0  0  0  0  0  0  0  0
   35.7122   12.7461    7.7706 C   0  0  0  0  0  0  0  0  0  0  0  0
   35.5781   11.9111    8.6618 O   0  0  0  0  0  0  0  0  0  0  0  0
   36.1620   14.1692    8.0820 C   0  0  0  0  0  0  0  0  0  0  0  0
   35.7488   15.3952    6.7989 S   0  0  0  0  0  0  0  0  0  0  0  0
   33.2849   12.8142    6.0198 C   0  0  0  0  0  0  0  0  0  0  0  0
   32.0069   12.4032    6.2226 C   0  0  0  0  0  0  0  0  0  0  0  0
   31.1149   13.3849    6.3211 O   0  0  0  0  0  0  0  0  0  0  0  0
   31.2586   14.2773    7.4036 C   0  0  0  0  0  0  0  0  0  0  0  0
   32.2778   14.8057    8.4521 C   0  0  0  0  0  0  0  0  0  0  0  0
   32.9071   14.0054    9.1454 O   0  0  0  0  0  0  0  0  0  0  0  0
   32.4077   16.1856    8.6542 N   0  0  0  0  0  0  0  0  0  0  0  0
   31.7739   17.2718    7.9279 C   0  0  0  0  0  0  0  0  0  0  0  0
   33.1954   16.6731    9.7465 C   0  0  0  0  0  0  0  0  0  0  0  0
   31.6548   11.0612    6.2329 C   0  0  0  0  0  0  0  0  0  0  0  0
  1  2  1  0
  2  3  2  0
  3  4  1  0
  4  5  1  0
  5  6  1  0
  6  7  2  0
  6  8  1  0
  8  9  1  0
  4 10  2  0
 10 11  1  0
 11 12  1  0
 12 13  1  0
 13 14  1  0
 14 15  2  0
 14 16  1  0
 16 17  1  0
 16 18  1  0
 11 19  2  0
 19  2  1  0
M  END
>  <original ID>  (85) 
None

>  <RMSD>  (85) 
2.733401

>  <submitter_name>  (85) 
None

>  <original SMILES>  (85) 
Cc1cc(NC(=O)CS)cc(OCC(=O)N(C)C)c1

>  <ref_pdb>  (85) 
Ax0310a

>  <method>  (85) 
None

>  <ddG>  (85) 
20.527768

>  <submitter_email>  (85) 
None

>  <ref_url>  (85) 
None

>  <ref_mols>  (85) 
Ax0732a,Ax0922a

>  <tags>  (85) 
['base']

>  <generation_date>  (85) 
None

$$$$
CN(C)C(=O)COc1cccc(NC(=O)CS)c1
     RDKit          3D

 18 18  0  0  0  0  0  0  0  0999 V2000
   33.1124   16.8067    9.7603 C   0  0  0  0  0  0  0  0  0  0  0  0
   32.3313   16.2011    8.7071 N   0  0  0  0  0  0  0  0  0  0  0  0
   31.6998   17.1653    7.8164 C   0  0  0  0  0  0  0  0  0  0  0  0
   32.1646   14.8076    8.6562 C   0  0  0  0  0  0  0  0  0  0  0  0
   32.6251   14.0781    9.5323 O   0  0  0  0  0  0  0  0  0  0  0  0
   31.5784   14.2071    7.3732 C   0  0  0  0  0  0  0  0  0  0  0  0
   31.3406   12.8067    7.4159 O   0  0  0  0  0  0  0  0  0  0  0  0
   31.7231   12.0002    6.3760 C   0  0  0  0  0  0  0  0  0  0  0  0
   31.5044   10.6301    6.5449 C   0  0  0  0  0  0  0  0  0  0  0  0
   32.5023    9.7469    6.1593 C   0  0  0  0  0  0  0  0  0  0  0  0
   33.7205   10.2952    5.7698 C   0  0  0  0  0  0  0  0  0  0  0  0
   33.7964   11.6646    5.5149 C   0  0  0  0  0  0  0  0  0  0  0  0
   34.9843   12.4161    5.7137 N   0  0  0  0  0  0  0  0  0  0  0  0
   35.3234   12.6498    7.0613 C   0  0  0  0  0  0  0  0  0  0  0  0
   35.2326   11.8088    7.9524 O   0  0  0  0  0  0  0  0  0  0  0  0
   35.9101   14.0244    7.3588 C   0  0  0  0  0  0  0  0  0  0  0  0
   35.2568   15.3464    6.2969 S   0  0  0  0  0  0  0  0  0  0  0  0
   32.6579   12.4299    5.4788 C   0  0  0  0  0  0  0  0  0  0  0  0
  1  2  1  0
  2  3  1  0
  2  4  1  0
  4  5  2  0
  4  6  1  0
  6  7  1  0
  7  8  1  0
  8  9  2  0
  9 10  1  0
 10 11  2  0
 11 12  1  0
 12 13  1  0
 13 14  1  0
 14 15  2  0
 14 16  1  0
 16 17  1  0
 12 18  2  0
 18  8  1  0
M  END
>  <original ID>  (86) 
None

>  <RMSD>  (86) 
2.349509

>  <submitter_name>  (86) 
None

>  <original SMILES>  (86) 
CN(C)C(=O)COc1cccc(NC(=O)CS)c1

>  <ref_pdb>  (86) 
Ax0310a

>  <method>  (86) 
None

>  <ddG>  (86) 
36.409719

>  <submitter_email>  (86) 
None

>  <ref_url>  (86) 
None

>  <ref_mols>  (86) 
Ax0732a,Ax0922a

>  <tags>  (86) 
['base']

>  <generation_date>  (86) 
None

$$$$
Cc1ccc(OCC(=O)N(C)C)cc1NC(=O)CS
     RDKit          3D

 19 19  0  0  0  0  0  0  0  0999 V2000
   34.1098    9.1385    4.6623 C   0  0  0  0  0  0  0  0  0  0  0  0
   33.2440   10.1875    5.2675 C   0  0  0  0  0  0  0  0  0  0  0  0
   32.0271    9.8128    5.8342 C   0  0  0  0  0  0  0  0  0  0  0  0
   31.3382   10.7601    6.5682 C   0  0  0  0  0  0  0  0  0  0  0  0
   31.7427   12.0955    6.5245 C   0  0  0  0  0  0  0  0  0  0  0  0
   31.3423   12.9248    7.5229 O   0  0  0  0  0  0  0  0  0  0  0  0
   31.5412   14.3253    7.4155 C   0  0  0  0  0  0  0  0  0  0  0  0
   32.1491   14.9114    8.6913 C   0  0  0  0  0  0  0  0  0  0  0  0
   32.6358   14.1569    9.5347 O   0  0  0  0  0  0  0  0  0  0  0  0
   32.2953   16.3019    8.7766 N   0  0  0  0  0  0  0  0  0  0  0  0
   33.1070   16.8882    9.8163 C   0  0  0  0  0  0  0  0  0  0  0  0
   31.6475   17.2791    7.9136 C   0  0  0  0  0  0  0  0  0  0  0  0
   32.7249   12.4724    5.6607 C   0  0  0  0  0  0  0  0  0  0  0  0
   33.6602   11.5178    5.4021 C   0  0  0  0  0  0  0  0  0  0  0  0
   35.0355   11.8324    5.6285 N   0  0  0  0  0  0  0  0  0  0  0  0
   35.4343   12.6793    6.6651 C   0  0  0  0  0  0  0  0  0  0  0  0
   36.1423   12.2219    7.5660 O   0  0  0  0  0  0  0  0  0  0  0  0
   35.0678   14.1523    6.6125 C   0  0  0  0  0  0  0  0  0  0  0  0
   36.5002   15.2175    6.8568 S   0  0  0  0  0  0  0  0  0  0  0  0
  1  2  1  0
  2  3  2  0
  3  4  1  0
  4  5  2  0
  5  6  1  0
  6  7  1  0
  7  8  1  0
  8  9  2  0
  8 10  1  0
 10 11  1  0
 10 12  1  0
  5 13  1  0
 13 14  2  0
 14 15  1  0
 15 16  1  0
 16 17  2  0
 16 18  1  0
 18 19  1  0
 14  2  1  0
M  END
>  <original ID>  (87) 
None

>  <RMSD>  (87) 
2.406633

>  <submitter_name>  (87) 
None

>  <original SMILES>  (87) 
Cc1ccc(OCC(=O)N(C)C)cc1NC(=O)CS

>  <ref_pdb>  (87) 
Ax0310a

>  <method>  (87) 
None

>  <ddG>  (87) 
26.30404

>  <submitter_email>  (87) 
None

>  <ref_url>  (87) 
None

>  <ref_mols>  (87) 
Ax0732a,Ax0922a

>  <tags>  (87) 
['base']

>  <generation_date>  (87) 
None

$$$$
CN(C)C(=O)COc1ccc(F)c(NC(=O)CS)c1
     RDKit          3D

 19 19  0  0  0  0  0  0  0  0999 V2000
   31.7957   17.2615    7.9008 C   0  0  0  0  0  0  0  0  0  0  0  0
   32.3942   16.2405    8.7372 N   0  0  0  0  0  0  0  0  0  0  0  0
   33.1442   16.8057    9.8184 C   0  0  0  0  0  0  0  0  0  0  0  0
   32.2595   14.8545    8.6365 C   0  0  0  0  0  0  0  0  0  0  0  0
   32.8240   14.1012    9.4328 O   0  0  0  0  0  0  0  0  0  0  0  0
   31.2945   14.2389    7.5887 C   0  0  0  0  0  0  0  0  0  0  0  0
   31.2434   13.4057    6.4701 O   0  0  0  0  0  0  0  0  0  0  0  0
   31.8899   12.2386    6.4489 C   0  0  0  0  0  0  0  0  0  0  0  0
   31.3490   11.1787    5.7326 C   0  0  0  0  0  0  0  0  0  0  0  0
   32.1720   10.1450    5.3277 C   0  0  0  0  0  0  0  0  0  0  0  0
   33.5346   10.2741    5.5599 C   0  0  0  0  0  0  0  0  0  0  0  0
   34.3544    9.4249    4.9391 F   0  0  0  0  0  0  0  0  0  0  0  0
   34.0488   11.3177    6.3317 C   0  0  0  0  0  0  0  0  0  0  0  0
   35.4208   11.6059    6.4484 N   0  0  0  0  0  0  0  0  0  0  0  0
   35.8643   12.6052    7.3069 C   0  0  0  0  0  0  0  0  0  0  0  0
   35.6168   12.6207    8.5100 O   0  0  0  0  0  0  0  0  0  0  0  0
   36.5892   13.7521    6.6402 C   0  0  0  0  0  0  0  0  0  0  0  0
   35.4994   15.1943    6.4709 S   0  0  0  0  0  0  0  0  0  0  0  0
   33.1876   12.2492    6.8454 C   0  0  0  0  0  0  0  0  0  0  0  0
  1  2  1  0
  2  3  1  0
  2  4  1  0
  4  5  2  0
  4  6  1  0
  6  7  1  0
  7  8  1  0
  8  9  2  0
  9 10  1  0
 10 11  2  0
 11 12  1  0
 11 13  1  0
 13 14  1  0
 14 15  1  0
 15 16  2  0
 15 17  1  0
 17 18  1  0
 13 19  2  0
 19  8  1  0
M  END
>  <original ID>  (88) 
None

>  <RMSD>  (88) 
2.656765

>  <submitter_name>  (88) 
None

>  <original SMILES>  (88) 
CN(C)C(=O)COc1ccc(F)c(NC(=O)CS)c1

>  <ref_pdb>  (88) 
Ax0310a

>  <method>  (88) 
None

>  <ddG>  (88) 
23.646674

>  <submitter_email>  (88) 
None

>  <ref_url>  (88) 
None

>  <ref_mols>  (88) 
Ax0732a,Ax0922a

>  <tags>  (88) 
['base']

>  <generation_date>  (88) 
None

$$$$
Cc1ccc(NC(=O)CS)cc1OCC(=O)N(C)C
     RDKit          3D

 19 19  0  0  0  0  0  0  0  0999 V2000
   31.1112    9.6171    6.7680 C   0  0  0  0  0  0  0  0  0  0  0  0
   32.0311   10.6342    6.1729 C   0  0  0  0  0  0  0  0  0  0  0  0
   33.0894   10.1204    5.4209 C   0  0  0  0  0  0  0  0  0  0  0  0
   34.1579   10.9459    5.1150 C   0  0  0  0  0  0  0  0  0  0  0  0
   34.0675   12.2997    5.4101 C   0  0  0  0  0  0  0  0  0  0  0  0
   35.2253   13.0678    5.6416 N   0  0  0  0  0  0  0  0  0  0  0  0
   35.5928   13.1305    7.0034 C   0  0  0  0  0  0  0  0  0  0  0  0
   35.5667   12.1705    7.7706 O   0  0  0  0  0  0  0  0  0  0  0  0
   36.0950   14.4868    7.4678 C   0  0  0  0  0  0  0  0  0  0  0  0
   35.4060   15.8649    6.5026 S   0  0  0  0  0  0  0  0  0  0  0  0
   32.9072   12.8700    5.8785 C   0  0  0  0  0  0  0  0  0  0  0  0
   32.0100   12.0144    6.4568 C   0  0  0  0  0  0  0  0  0  0  0  0
   31.2671   12.4624    7.4870 O   0  0  0  0  0  0  0  0  0  0  0  0
   31.2879   13.8306    7.9034 C   0  0  0  0  0  0  0  0  0  0  0  0
   32.3246   14.5617    8.7687 C   0  0  0  0  0  0  0  0  0  0  0  0
   33.0184   13.9169    9.5522 O   0  0  0  0  0  0  0  0  0  0  0  0
   32.4413   15.9561    8.7062 N   0  0  0  0  0  0  0  0  0  0  0  0
   33.2634   16.6481    9.6793 C   0  0  0  0  0  0  0  0  0  0  0  0
   31.8000   16.8656    7.7621 C   0  0  0  0  0  0  0  0  0  0  0  0
  1  2  1  0
  2  3  2  0
  3  4  1  0
  4  5  2  0
  5  6  1  0
  6  7  1  0
  7  8  2  0
  7  9  1  0
  9 10  1  0
  5 11  1  0
 11 12  2  0
 12 13  1  0
 13 14  1  0
 14 15  1  0
 15 16  2  0
 15 17  1  0
 17 18  1  0
 17 19  1  0
 12  2  1  0
M  END
>  <original ID>  (89) 
None

>  <RMSD>  (89) 
2.415998

>  <submitter_name>  (89) 
None

>  <original SMILES>  (89) 
Cc1ccc(NC(=O)CS)cc1OCC(=O)N(C)C

>  <ref_pdb>  (89) 
Ax0310a

>  <method>  (89) 
None

>  <ddG>  (89) 
-18.292651

>  <submitter_email>  (89) 
None

>  <ref_url>  (89) 
None

>  <ref_mols>  (89) 
Ax0732a,Ax0922a

>  <tags>  (89) 
['base']

>  <generation_date>  (89) 
None

$$$$
Cc1cc(C)c(OCC(=O)N(C)C)cc1NC(=O)CS
     RDKit          3D

 20 20  0  0  0  0  0  0  0  0999 V2000
   34.8675   10.1413    3.9439 C   0  0  0  0  0  0  0  0  0  0  0  0
   33.9638   10.7720    4.9426 C   0  0  0  0  0  0  0  0  0  0  0  0
   32.7503   10.1371    5.2120 C   0  0  0  0  0  0  0  0  0  0  0  0
   31.8700   10.6604    6.1581 C   0  0  0  0  0  0  0  0  0  0  0  0
   30.9399    9.6699    6.7658 C   0  0  0  0  0  0  0  0  0  0  0  0
   32.1220   11.9303    6.6537 C   0  0  0  0  0  0  0  0  0  0  0  0
   31.2982   12.6435    7.4526 O   0  0  0  0  0  0  0  0  0  0  0  0
   31.4642   14.0790    7.3811 C   0  0  0  0  0  0  0  0  0  0  0  0
   32.1260   14.7268    8.6112 C   0  0  0  0  0  0  0  0  0  0  0  0
   32.5938   14.0281    9.5098 O   0  0  0  0  0  0  0  0  0  0  0  0
   32.2931   16.1124    8.6153 N   0  0  0  0  0  0  0  0  0  0  0  0
   31.8073   17.0222    7.6031 C   0  0  0  0  0  0  0  0  0  0  0  0
   32.9637   16.7758    9.6940 C   0  0  0  0  0  0  0  0  0  0  0  0
   33.3838   12.4373    6.5233 C   0  0  0  0  0  0  0  0  0  0  0  0
   34.3275   11.8674    5.7245 C   0  0  0  0  0  0  0  0  0  0  0  0
   35.6640   12.3205    5.8658 N   0  0  0  0  0  0  0  0  0  0  0  0
   36.0615   13.0042    7.0063 C   0  0  0  0  0  0  0  0  0  0  0  0
   36.7382   12.4015    7.8436 O   0  0  0  0  0  0  0  0  0  0  0  0
   35.7356   14.4862    7.2127 C   0  0  0  0  0  0  0  0  0  0  0  0
   35.2018   15.3757    5.7272 S   0  0  0  0  0  0  0  0  0  0  0  0
  1  2  1  0
  2  3  2  0
  3  4  1  0
  4  5  1  0
  4  6  2  0
  6  7  1  0
  7  8  1  0
  8  9  1  0
  9 10  2  0
  9 11  1  0
 11 12  1  0
 11 13  1  0
  6 14  1  0
 14 15  2  0
 15 16  1  0
 16 17  1  0
 17 18  2  0
 17 19  1  0
 19 20  1  0
 15  2  1  0
M  END
>  <original ID>  (90) 
None

>  <RMSD>  (90) 
2.567534

>  <submitter_name>  (90) 
None

>  <original SMILES>  (90) 
Cc1cc(C)c(OCC(=O)N(C)C)cc1NC(=O)CS

>  <ref_pdb>  (90) 
Ax0310a

>  <method>  (90) 
None

>  <ddG>  (90) 
3.755096

>  <submitter_email>  (90) 
None

>  <ref_url>  (90) 
None

>  <ref_mols>  (90) 
Ax0732a,Ax0922a

>  <tags>  (90) 
['base']

>  <generation_date>  (90) 
None

$$$$
CN(C)C(=O)COc1cncc(NC(=O)CS)c1
     RDKit          3D

 18 18  0  0  0  0  0  0  0  0999 V2000
   31.9222   17.5987    9.0874 C   0  0  0  0  0  0  0  0  0  0  0  0
   32.3460   16.2170    9.2257 N   0  0  0  0  0  0  0  0  0  0  0  0
   33.6929   16.1181    9.6828 C   0  0  0  0  0  0  0  0  0  0  0  0
   32.0707   15.3366    8.1717 C   0  0  0  0  0  0  0  0  0  0  0  0
   31.8572   15.7135    7.0232 O   0  0  0  0  0  0  0  0  0  0  0  0
   32.1483   13.8654    8.4952 C   0  0  0  0  0  0  0  0  0  0  0  0
   31.2440   13.0450    7.7678 O   0  0  0  0  0  0  0  0  0  0  0  0
   31.7549   12.2847    6.7528 C   0  0  0  0  0  0  0  0  0  0  0  0
   31.4120   10.9425    6.5977 C   0  0  0  0  0  0  0  0  0  0  0  0
   32.1383   10.0736    5.8688 N   0  0  0  0  0  0  0  0  0  0  0  0
   33.3131   10.5530    5.4185 C   0  0  0  0  0  0  0  0  0  0  0  0
   33.6908   11.8879    5.5566 C   0  0  0  0  0  0  0  0  0  0  0  0
   35.0689   12.2411    5.6333 N   0  0  0  0  0  0  0  0  0  0  0  0
   35.4597   13.1349    6.6257 C   0  0  0  0  0  0  0  0  0  0  0  0
   36.0011   12.7272    7.6537 O   0  0  0  0  0  0  0  0  0  0  0  0
   35.2120   14.6090    6.3504 C   0  0  0  0  0  0  0  0  0  0  0  0
   36.7282   15.5579    6.5303 S   0  0  0  0  0  0  0  0  0  0  0  0
   32.7493   12.7909    5.9756 C   0  0  0  0  0  0  0  0  0  0  0  0
  1  2  1  0
  2  3  1  0
  2  4  1  0
  4  5  2  0
  4  6  1  0
  6  7  1  0
  7  8  1  0
  8  9  2  0
  9 10  1  0
 10 11  2  0
 11 12  1  0
 12 13  1  0
 13 14  1  0
 14 15  2  0
 14 16  1  0
 16 17  1  0
 12 18  2  0
 18  8  1  0
M  END
>  <original ID>  (91) 
None

>  <RMSD>  (91) 
2.577635

>  <submitter_name>  (91) 
None

>  <original SMILES>  (91) 
CN(C)C(=O)COc1cncc(NC(=O)CS)c1

>  <ref_pdb>  (91) 
Ax0310a

>  <method>  (91) 
None

>  <ddG>  (91) 
14.909631

>  <submitter_email>  (91) 
None

>  <ref_url>  (91) 
None

>  <ref_mols>  (91) 
Ax0732a,Ax0922a

>  <tags>  (91) 
['base']

>  <generation_date>  (91) 
None

$$$$
CN(C)C(=O)COc1cc(NC(=O)CS)ccn1
     RDKit          3D

 18 18  0  0  0  0  0  0  0  0999 V2000
   32.8450   16.2543    9.2503 C   0  0  0  0  0  0  0  0  0  0  0  0
   32.2351   15.2685    8.3705 N   0  0  0  0  0  0  0  0  0  0  0  0
   31.9461   13.9830    8.8675 C   0  0  0  0  0  0  0  0  0  0  0  0
   31.7599   15.6798    7.1620 C   0  0  0  0  0  0  0  0  0  0  0  0
   31.9122   16.8707    6.8687 O   0  0  0  0  0  0  0  0  0  0  0  0
   31.0723   14.7856    6.0705 C   0  0  0  0  0  0  0  0  0  0  0  0
   30.7079   13.4579    5.8382 O   0  0  0  0  0  0  0  0  0  0  0  0
   31.5960   12.4435    5.8533 C   0  0  0  0  0  0  0  0  0  0  0  0
   32.9389   12.6609    5.9550 C   0  0  0  0  0  0  0  0  0  0  0  0
   33.7210   11.5924    6.3077 C   0  0  0  0  0  0  0  0  0  0  0  0
   34.9896   11.7295    6.8848 N   0  0  0  0  0  0  0  0  0  0  0  0
   35.6246   12.7565    7.5231 C   0  0  0  0  0  0  0  0  0  0  0  0
   36.5202   12.4127    8.3044 O   0  0  0  0  0  0  0  0  0  0  0  0
   35.3288   14.2264    7.3460 C   0  0  0  0  0  0  0  0  0  0  0  0
   35.9543   14.8535    5.7691 S   0  0  0  0  0  0  0  0  0  0  0  0
   33.1891   10.3004    6.2390 C   0  0  0  0  0  0  0  0  0  0  0  0
   31.8387   10.1580    6.0101 C   0  0  0  0  0  0  0  0  0  0  0  0
   31.0279   11.2164    5.8775 N   0  0  0  0  0  0  0  0  0  0  0  0
  1  2  1  0
  2  3  1  0
  2  4  1  0
  4  5  2  0
  4  6  1  0
  6  7  1  0
  7  8  1  0
  8  9  2  0
  9 10  1  0
 10 11  1  0
 11 12  1  0
 12 13  2  0
 12 14  1  0
 14 15  1  0
 10 16  2  0
 16 17  1  0
 17 18  2  0
 18  8  1  0
M  END
>  <original ID>  (92) 
None

>  <RMSD>  (92) 
2.72976

>  <submitter_name>  (92) 
None

>  <original SMILES>  (92) 
CN(C)C(=O)COc1cc(NC(=O)CS)ccn1

>  <ref_pdb>  (92) 
Ax0310a

>  <method>  (92) 
None

>  <ddG>  (92) 
16.314686

>  <submitter_email>  (92) 
None

>  <ref_url>  (92) 
None

>  <ref_mols>  (92) 
Ax0732a,Ax0922a

>  <tags>  (92) 
['base']

>  <generation_date>  (92) 
None

$$$$
CN(C)C(=O)COc1cc(OCC(=O)N2CCOCC2)ccc1F
     RDKit          3D

 24 25  0  0  0  0  0  0  0  0999 V2000
   32.4817   16.6589    8.2979 C   0  0  0  0  0  0  0  0  0  0  0  0
   33.2288   15.5088    8.7800 N   0  0  0  0  0  0  0  0  0  0  0  0
   34.3824   15.8158    9.6049 C   0  0  0  0  0  0  0  0  0  0  0  0
   33.1150   14.2210    8.2556 C   0  0  0  0  0  0  0  0  0  0  0  0
   34.0341   13.4061    8.3563 O   0  0  0  0  0  0  0  0  0  0  0  0
   31.7772   13.8305    7.6008 C   0  0  0  0  0  0  0  0  0  0  0  0
   31.5639   12.4813    7.1656 O   0  0  0  0  0  0  0  0  0  0  0  0
   32.3468   11.9652    6.1899 C   0  0  0  0  0  0  0  0  0  0  0  0
   32.9404   12.7640    5.2324 C   0  0  0  0  0  0  0  0  0  0  0  0
   33.8392   12.2263    4.3241 C   0  0  0  0  0  0  0  0  0  0  0  0
   34.5285   12.9622    3.4040 O   0  0  0  0  0  0  0  0  0  0  0  0
   34.2018   14.3440    3.2928 C   0  0  0  0  0  0  0  0  0  0  0  0
   34.5219   15.2792    4.4799 C   0  0  0  0  0  0  0  0  0  0  0  0
   33.6356   15.9950    4.9585 O   0  0  0  0  0  0  0  0  0  0  0  0
   35.8104   15.2754    4.9771 N   0  0  0  0  0  0  0  0  0  0  0  0
   36.1465   16.1552    6.0962 C   0  0  0  0  0  0  0  0  0  0  0  0
   37.1699   15.4990    7.0266 C   0  0  0  0  0  0  0  0  0  0  0  0
   38.3297   15.0772    6.2892 O   0  0  0  0  0  0  0  0  0  0  0  0
   37.9549   14.0989    5.3078 C   0  0  0  0  0  0  0  0  0  0  0  0
   36.9715   14.6957    4.2991 C   0  0  0  0  0  0  0  0  0  0  0  0
   34.0890   10.8509    4.3368 C   0  0  0  0  0  0  0  0  0  0  0  0
   33.4165   10.0206    5.2361 C   0  0  0  0  0  0  0  0  0  0  0  0
   32.5362   10.5840    6.1498 C   0  0  0  0  0  0  0  0  0  0  0  0
   31.8729    9.7783    6.9942 F   0  0  0  0  0  0  0  0  0  0  0  0
  1  2  1  0
  2  3  1  0
  2  4  1  0
  4  5  2  0
  4  6  1  0
  6  7  1  0
  7  8  1  0
  8  9  2  0
  9 10  1  0
 10 11  1  0
 11 12  1  0
 12 13  1  0
 13 14  2  0
 13 15  1  0
 15 16  1  0
 16 17  1  0
 17 18  1  0
 18 19  1  0
 19 20  1  0
 10 21  2  0
 21 22  1  0
 22 23  2  0
 23 24  1  0
 23  8  1  0
 20 15  1  0
M  END
>  <original ID>  (93) 
None

>  <RMSD>  (93) 
3.293019

>  <submitter_name>  (93) 
None

>  <original SMILES>  (93) 
CN(C)C(=O)COc1cc(OCC(=O)N2CCOCC2)ccc1F

>  <ref_pdb>  (93) 
Ax0310a

>  <method>  (93) 
None

>  <ddG>  (93) 
-39.798905

>  <submitter_email>  (93) 
None

>  <ref_url>  (93) 
None

>  <ref_mols>  (93) 
Ax0739a,Ax0922a

>  <tags>  (93) 
['base']

>  <generation_date>  (93) 
None

$$$$
CN(C)C(=O)COc1cccc(OCC(=O)N2CCOCC2)c1
     RDKit          3D

 23 24  0  0  0  0  0  0  0  0999 V2000
   31.7763   16.9511    7.9653 C   0  0  0  0  0  0  0  0  0  0  0  0
   32.4481   16.0025    8.8495 N   0  0  0  0  0  0  0  0  0  0  0  0
   33.3457   16.6589    9.7728 C   0  0  0  0  0  0  0  0  0  0  0  0
   32.3681   14.6031    8.8279 C   0  0  0  0  0  0  0  0  0  0  0  0
   33.0786   13.9281    9.5755 O   0  0  0  0  0  0  0  0  0  0  0  0
   31.3523   13.8738    7.9288 C   0  0  0  0  0  0  0  0  0  0  0  0
   31.2374   12.5007    7.5768 O   0  0  0  0  0  0  0  0  0  0  0  0
   32.1435   11.7902    6.8981 C   0  0  0  0  0  0  0  0  0  0  0  0
   31.8155   10.4728    6.5466 C   0  0  0  0  0  0  0  0  0  0  0  0
   32.7197    9.7149    5.8166 C   0  0  0  0  0  0  0  0  0  0  0  0
   33.8328   10.3592    5.2901 C   0  0  0  0  0  0  0  0  0  0  0  0
   34.0608   11.6881    5.6352 C   0  0  0  0  0  0  0  0  0  0  0  0
   34.7590   12.5105    4.7944 O   0  0  0  0  0  0  0  0  0  0  0  0
   33.8505   13.5182    4.2803 C   0  0  0  0  0  0  0  0  0  0  0  0
   33.8386   14.8229    5.0977 C   0  0  0  0  0  0  0  0  0  0  0  0
   32.8265   15.1987    5.6890 O   0  0  0  0  0  0  0  0  0  0  0  0
   35.0166   15.5450    5.1433 N   0  0  0  0  0  0  0  0  0  0  0  0
   35.2291   16.4971    6.2313 C   0  0  0  0  0  0  0  0  0  0  0  0
   36.2584   15.9304    7.2159 C   0  0  0  0  0  0  0  0  0  0  0  0
   37.4836   15.6158    6.5259 O   0  0  0  0  0  0  0  0  0  0  0  0
   37.2530   14.6264    5.5078 C   0  0  0  0  0  0  0  0  0  0  0  0
   36.2571   15.1572    4.4778 C   0  0  0  0  0  0  0  0  0  0  0  0
   33.3727   12.2985    6.6445 C   0  0  0  0  0  0  0  0  0  0  0  0
  1  2  1  0
  2  3  1  0
  2  4  1  0
  4  5  2  0
  4  6  1  0
  6  7  1  0
  7  8  1  0
  8  9  2  0
  9 10  1  0
 10 11  2  0
 11 12  1  0
 12 13  1  0
 13 14  1  0
 14 15  1  0
 15 16  2  0
 15 17  1  0
 17 18  1  0
 18 19  1  0
 19 20  1  0
 20 21  1  0
 21 22  1  0
 12 23  2  0
 23  8  1  0
 22 17  1  0
M  END
>  <original ID>  (94) 
None

>  <RMSD>  (94) 
2.448206

>  <submitter_name>  (94) 
None

>  <original SMILES>  (94) 
CN(C)C(=O)COc1cccc(OCC(=O)N2CCOCC2)c1

>  <ref_pdb>  (94) 
Ax0310a

>  <method>  (94) 
None

>  <ddG>  (94) 
-5.677412

>  <submitter_email>  (94) 
None

>  <ref_url>  (94) 
None

>  <ref_mols>  (94) 
Ax0739a,Ax0922a

>  <tags>  (94) 
['base']

>  <generation_date>  (94) 
None

$$$$
CN(C)C(=O)COc1ccnc(OCC(=O)N2CCOCC2)c1
     RDKit          3D

 23 24  0  0  0  0  0  0  0  0999 V2000
   33.3669   16.5460    9.7456 C   0  0  0  0  0  0  0  0  0  0  0  0
   32.4080   15.9032    8.8767 N   0  0  0  0  0  0  0  0  0  0  0  0
   31.8259   16.8405    7.9219 C   0  0  0  0  0  0  0  0  0  0  0  0
   32.3412   14.4977    8.8182 C   0  0  0  0  0  0  0  0  0  0  0  0
   33.0418   13.8128    9.5645 O   0  0  0  0  0  0  0  0  0  0  0  0
   31.3368   13.7921    7.8685 C   0  0  0  0  0  0  0  0  0  0  0  0
   31.1666   12.3913    7.5901 O   0  0  0  0  0  0  0  0  0  0  0  0
   31.7331   11.6716    6.6088 C   0  0  0  0  0  0  0  0  0  0  0  0
   31.6901   10.2814    6.6907 C   0  0  0  0  0  0  0  0  0  0  0  0
   32.7406    9.5852    6.1371 C   0  0  0  0  0  0  0  0  0  0  0  0
   33.7707   10.2128    5.5449 N   0  0  0  0  0  0  0  0  0  0  0  0
   33.6247   11.5423    5.3716 C   0  0  0  0  0  0  0  0  0  0  0  0
   34.7669   12.2487    5.1048 O   0  0  0  0  0  0  0  0  0  0  0  0
   35.0166   13.1317    6.1956 C   0  0  0  0  0  0  0  0  0  0  0  0
   34.5214   14.5638    5.9669 C   0  0  0  0  0  0  0  0  0  0  0  0
   33.5266   15.0023    6.5365 O   0  0  0  0  0  0  0  0  0  0  0  0
   35.2170   15.3791    5.1003 N   0  0  0  0  0  0  0  0  0  0  0  0
   35.2596   16.7949    5.4526 C   0  0  0  0  0  0  0  0  0  0  0  0
   36.5259   17.0376    6.2820 C   0  0  0  0  0  0  0  0  0  0  0  0
   37.6915   16.6605    5.5230 O   0  0  0  0  0  0  0  0  0  0  0  0
   37.6542   15.2733    5.1436 C   0  0  0  0  0  0  0  0  0  0  0  0
   36.3873   14.9523    4.3470 C   0  0  0  0  0  0  0  0  0  0  0  0
   32.5119   12.2670    5.6883 C   0  0  0  0  0  0  0  0  0  0  0  0
  1  2  1  0
  2  3  1  0
  2  4  1  0
  4  5  2  0
  4  6  1  0
  6  7  1  0
  7  8  1  0
  8  9  2  0
  9 10  1  0
 10 11  2  0
 11 12  1  0
 12 13  1  0
 13 14  1  0
 14 15  1  0
 15 16  2  0
 15 17  1  0
 17 18  1  0
 18 19  1  0
 19 20  1  0
 20 21  1  0
 21 22  1  0
 12 23  2  0
 23  8  1  0
 22 17  1  0
M  END
>  <original ID>  (95) 
None

>  <RMSD>  (95) 
2.577359

>  <submitter_name>  (95) 
None

>  <original SMILES>  (95) 
CN(C)C(=O)COc1ccnc(OCC(=O)N2CCOCC2)c1

>  <ref_pdb>  (95) 
Ax0310a

>  <method>  (95) 
None

>  <ddG>  (95) 
0.426128

>  <submitter_email>  (95) 
None

>  <ref_url>  (95) 
None

>  <ref_mols>  (95) 
Ax0739a,Ax0922a

>  <tags>  (95) 
['base']

>  <generation_date>  (95) 
None

$$$$
CN(C)C(=O)COc1cncc(OCC(=O)N2CCOCC2)c1
     RDKit          3D

 23 24  0  0  0  0  0  0  0  0999 V2000
   31.7746   16.9588    7.9743 C   0  0  0  0  0  0  0  0  0  0  0  0
   32.4479   16.0073    8.8547 N   0  0  0  0  0  0  0  0  0  0  0  0
   33.3476   16.6617    9.7776 C   0  0  0  0  0  0  0  0  0  0  0  0
   32.3681   14.6087    8.8297 C   0  0  0  0  0  0  0  0  0  0  0  0
   33.0822   13.9296    9.5701 O   0  0  0  0  0  0  0  0  0  0  0  0
   31.3506   13.8796    7.9329 C   0  0  0  0  0  0  0  0  0  0  0  0
   31.2437   12.5074    7.5740 O   0  0  0  0  0  0  0  0  0  0  0  0
   32.1577   11.8079    6.8991 C   0  0  0  0  0  0  0  0  0  0  0  0
   31.8602   10.5016    6.5042 C   0  0  0  0  0  0  0  0  0  0  0  0
   32.6985    9.7414    5.7722 N   0  0  0  0  0  0  0  0  0  0  0  0
   33.7796   10.3925    5.2984 C   0  0  0  0  0  0  0  0  0  0  0  0
   34.0727   11.7026    5.6464 C   0  0  0  0  0  0  0  0  0  0  0  0
   34.7729   12.5207    4.8056 O   0  0  0  0  0  0  0  0  0  0  0  0
   33.8635   13.5245    4.2836 C   0  0  0  0  0  0  0  0  0  0  0  0
   33.8432   14.8263    5.1045 C   0  0  0  0  0  0  0  0  0  0  0  0
   32.8311   15.1853    5.7058 O   0  0  0  0  0  0  0  0  0  0  0  0
   35.0144   15.5583    5.1479 N   0  0  0  0  0  0  0  0  0  0  0  0
   35.2234   16.5090    6.2381 C   0  0  0  0  0  0  0  0  0  0  0  0
   36.2635   15.9487    7.2150 C   0  0  0  0  0  0  0  0  0  0  0  0
   37.4877   15.6478    6.5176 O   0  0  0  0  0  0  0  0  0  0  0  0
   37.2628   14.6625    5.4951 C   0  0  0  0  0  0  0  0  0  0  0  0
   36.2555   15.1876    4.4732 C   0  0  0  0  0  0  0  0  0  0  0  0
   33.3925   12.3081    6.6619 C   0  0  0  0  0  0  0  0  0  0  0  0
  1  2  1  0
  2  3  1  0
  2  4  1  0
  4  5  2  0
  4  6  1  0
  6  7  1  0
  7  8  1  0
  8  9  2  0
  9 10  1  0
 10 11  2  0
 11 12  1  0
 12 13  1  0
 13 14  1  0
 14 15  1  0
 15 16  2  0
 15 17  1  0
 17 18  1  0
 18 19  1  0
 19 20  1  0
 20 21  1  0
 21 22  1  0
 12 23  2  0
 23  8  1  0
 22 17  1  0
M  END
>  <original ID>  (96) 
None

>  <RMSD>  (96) 
2.456781

>  <submitter_name>  (96) 
None

>  <original SMILES>  (96) 
CN(C)C(=O)COc1cncc(OCC(=O)N2CCOCC2)c1

>  <ref_pdb>  (96) 
Ax0310a

>  <method>  (96) 
None

>  <ddG>  (96) 
-23.013593

>  <submitter_email>  (96) 
None

>  <ref_url>  (96) 
None

>  <ref_mols>  (96) 
Ax0739a,Ax0922a

>  <tags>  (96) 
['base']

>  <generation_date>  (96) 
None

$$$$
Cc1cc(NC(=O)[C@@H]2CCCO2)cc(OCC(=O)N(C)C)c1
     RDKit          3D

 22 23  0  0  0  0  0  0  0  0999 V2000
   31.2422    8.5500    5.6740 C   0  0  0  0  0  0  0  0  0  0  0  0
   31.8982    9.8698    5.7686 C   0  0  0  0  0  0  0  0  0  0  0  0
   32.9649   10.2031    4.9357 C   0  0  0  0  0  0  0  0  0  0  0  0
   33.5905   11.4283    5.0932 C   0  0  0  0  0  0  0  0  0  0  0  0
   34.4272   11.9260    4.0921 N   0  0  0  0  0  0  0  0  0  0  0  0
   34.6722   13.2863    3.9279 C   0  0  0  0  0  0  0  0  0  0  0  0
   34.6017   14.1697    4.7787 O   0  0  0  0  0  0  0  0  0  0  0  0
   34.9664   13.6449    2.4778 C   0  0  2  0  0  0  0  0  0  0  0  0
   33.8856   14.5859    1.9596 C   0  0  0  0  0  0  0  0  0  0  0  0
   33.8021   14.2130    0.5057 C   0  0  0  0  0  0  0  0  0  0  0  0
   34.0281   12.7222    0.5602 C   0  0  0  0  0  0  0  0  0  0  0  0
   34.9668   12.4886    1.6168 O   0  0  0  0  0  0  0  0  0  0  0  0
   33.2326   12.2337    6.1457 C   0  0  0  0  0  0  0  0  0  0  0  0
   32.0313   12.0309    6.7745 C   0  0  0  0  0  0  0  0  0  0  0  0
   31.4965   12.9989    7.5797 O   0  0  0  0  0  0  0  0  0  0  0  0
   31.4748   14.2685    6.9595 C   0  0  0  0  0  0  0  0  0  0  0  0
   31.9585   15.5201    7.6717 C   0  0  0  0  0  0  0  0  0  0  0  0
   31.9302   16.5779    7.0362 O   0  0  0  0  0  0  0  0  0  0  0  0
   32.3894   15.5153    8.9801 N   0  0  0  0  0  0  0  0  0  0  0  0
   32.7082   16.8343    9.5020 C   0  0  0  0  0  0  0  0  0  0  0  0
   33.1771   14.3950    9.3837 C   0  0  0  0  0  0  0  0  0  0  0  0
   31.4055   10.8074    6.6549 C   0  0  0  0  0  0  0  0  0  0  0  0
  1  2  1  0
  2  3  2  0
  3  4  1  0
  4  5  1  0
  5  6  1  0
  6  7  2  0
  8  6  1  1
  8  9  1  0
  9 10  1  0
 10 11  1  0
 11 12  1  0
  4 13  2  0
 13 14  1  0
 14 15  1  0
 15 16  1  0
 16 17  1  0
 17 18  2  0
 17 19  1  0
 19 20  1  0
 19 21  1  0
 14 22  2  0
 22  2  1  0
 12  8  1  0
M  END
>  <original ID>  (97) 
None

>  <RMSD>  (97) 
2.662414

>  <submitter_name>  (97) 
None

>  <original SMILES>  (97) 
Cc1cc(NC(=O)[C@@H]2CCCO2)cc(OCC(=O)N(C)C)c1

>  <ref_pdb>  (97) 
Ax0310a

>  <method>  (97) 
None

>  <ddG>  (97) 
-10.516133

>  <submitter_email>  (97) 
None

>  <ref_url>  (97) 
None

>  <ref_mols>  (97) 
Ax0922a,Ax0416a

>  <tags>  (97) 
['base']

>  <generation_date>  (97) 
None

$$$$
Cc1cc(NC(=O)[C@H]2CCCO2)cc(OCC(=O)N(C)C)c1
     RDKit          3D

 22 23  0  0  0  0  0  0  0  0999 V2000
   31.2729    8.5150    5.6715 C   0  0  0  0  0  0  0  0  0  0  0  0
   31.9352    9.8284    5.7682 C   0  0  0  0  0  0  0  0  0  0  0  0
   33.0246   10.1554    4.9705 C   0  0  0  0  0  0  0  0  0  0  0  0
   33.6211   11.3966    5.1254 C   0  0  0  0  0  0  0  0  0  0  0  0
   34.4312   11.9086    4.1046 N   0  0  0  0  0  0  0  0  0  0  0  0
   34.3003   13.2664    3.7884 C   0  0  0  0  0  0  0  0  0  0  0  0
   34.3238   14.2137    4.5687 O   0  0  0  0  0  0  0  0  0  0  0  0
   33.9140   13.4211    2.3248 C   0  0  1  0  0  0  0  0  0  0  0  0
   34.0290   14.8391    1.8084 C   0  0  0  0  0  0  0  0  0  0  0  0
   34.3404   14.6061    0.3546 C   0  0  0  0  0  0  0  0  0  0  0  0
   35.2315   13.3858    0.4218 C   0  0  0  0  0  0  0  0  0  0  0  0
   34.7290   12.5770    1.4917 O   0  0  0  0  0  0  0  0  0  0  0  0
   33.2336   12.2283    6.1505 C   0  0  0  0  0  0  0  0  0  0  0  0
   32.0323   12.0092    6.7629 C   0  0  0  0  0  0  0  0  0  0  0  0
   31.4316   12.9029    7.5838 O   0  0  0  0  0  0  0  0  0  0  0  0
   31.6760   14.2861    7.3913 C   0  0  0  0  0  0  0  0  0  0  0  0
   32.2415   14.9090    8.6670 C   0  0  0  0  0  0  0  0  0  0  0  0
   32.7119   14.1827    9.5453 O   0  0  0  0  0  0  0  0  0  0  0  0
   32.3191   16.3026    8.7545 N   0  0  0  0  0  0  0  0  0  0  0  0
   33.0812   16.9260    9.8096 C   0  0  0  0  0  0  0  0  0  0  0  0
   31.6744   17.2433    7.8521 C   0  0  0  0  0  0  0  0  0  0  0  0
   31.4193   10.7759    6.6266 C   0  0  0  0  0  0  0  0  0  0  0  0
  1  2  1  0
  2  3  2  0
  3  4  1  0
  4  5  1  0
  5  6  1  0
  6  7  2  0
  8  6  1  1
  8  9  1  0
  9 10  1  0
 10 11  1  0
 11 12  1  0
  4 13  2  0
 13 14  1  0
 14 15  1  0
 15 16  1  0
 16 17  1  0
 17 18  2  0
 17 19  1  0
 19 20  1  0
 19 21  1  0
 14 22  2  0
 22  2  1  0
 12  8  1  0
M  END
>  <original ID>  (98) 
None

>  <RMSD>  (98) 
2.653106

>  <submitter_name>  (98) 
None

>  <original SMILES>  (98) 
Cc1cc(NC(=O)[C@H]2CCCO2)cc(OCC(=O)N(C)C)c1

>  <ref_pdb>  (98) 
Ax0310a

>  <method>  (98) 
None

>  <ddG>  (98) 
-16.837865

>  <submitter_email>  (98) 
None

>  <ref_url>  (98) 
None

>  <ref_mols>  (98) 
Ax0922a,Ax0416a

>  <tags>  (98) 
['base']

>  <generation_date>  (98) 
None

$$$$
CN(C)C(=O)COc1cccc(NC(=O)[C@@H]2CCCO2)c1
     RDKit          3D

 21 22  0  0  0  0  0  0  0  0999 V2000
   33.1009   16.7343    9.6783 C   0  0  0  0  0  0  0  0  0  0  0  0
   32.3482   16.0762    8.6360 N   0  0  0  0  0  0  0  0  0  0  0  0
   31.7712   16.9842    7.6587 C   0  0  0  0  0  0  0  0  0  0  0  0
   32.2253   14.6829    8.6187 C   0  0  0  0  0  0  0  0  0  0  0  0
   32.6645   13.9949    9.5399 O   0  0  0  0  0  0  0  0  0  0  0  0
   31.6373   14.0222    7.3637 C   0  0  0  0  0  0  0  0  0  0  0  0
   31.3661   12.6255    7.4987 O   0  0  0  0  0  0  0  0  0  0  0  0
   31.9596   11.7177    6.6837 C   0  0  0  0  0  0  0  0  0  0  0  0
   31.3687   10.4671    6.5126 C   0  0  0  0  0  0  0  0  0  0  0  0
   31.8952    9.5691    5.5964 C   0  0  0  0  0  0  0  0  0  0  0  0
   32.9496    9.9788    4.7839 C   0  0  0  0  0  0  0  0  0  0  0  0
   33.5335   11.2239    4.9947 C   0  0  0  0  0  0  0  0  0  0  0  0
   34.3589   11.8048    4.0268 N   0  0  0  0  0  0  0  0  0  0  0  0
   34.5137   13.1869    3.9008 C   0  0  0  0  0  0  0  0  0  0  0  0
   34.2888   14.0555    4.7414 O   0  0  0  0  0  0  0  0  0  0  0  0
   34.9457   13.5840    2.4952 C   0  0  2  0  0  0  0  0  0  0  0  0
   33.9624   14.6004    1.9266 C   0  0  0  0  0  0  0  0  0  0  0  0
   33.9705   14.2747    0.4591 C   0  0  0  0  0  0  0  0  0  0  0  0
   34.1152   12.7730    0.4799 C   0  0  0  0  0  0  0  0  0  0  0  0
   34.9602   12.4595    1.5934 O   0  0  0  0  0  0  0  0  0  0  0  0
   33.1571   11.9732    6.0807 C   0  0  0  0  0  0  0  0  0  0  0  0
  1  2  1  0
  2  3  1  0
  2  4  1  0
  4  5  2  0
  4  6  1  0
  6  7  1  0
  7  8  1  0
  8  9  2  0
  9 10  1  0
 10 11  2  0
 11 12  1  0
 12 13  1  0
 13 14  1  0
 14 15  2  0
 16 14  1  1
 16 17  1  0
 17 18  1  0
 18 19  1  0
 19 20  1  0
 12 21  2  0
 21  8  1  0
 20 16  1  0
M  END
>  <original ID>  (99) 
None

>  <RMSD>  (99) 
2.412226

>  <submitter_name>  (99) 
None

>  <original SMILES>  (99) 
CN(C)C(=O)COc1cccc(NC(=O)[C@@H]2CCCO2)c1

>  <ref_pdb>  (99) 
Ax0310a

>  <method>  (99) 
None

>  <ddG>  (99) 
-20.327001

>  <submitter_email>  (99) 
None

>  <ref_url>  (99) 
None

>  <ref_mols>  (99) 
Ax0922a,Ax0416a

>  <tags>  (99) 
['base']

>  <generation_date>  (99) 
None

$$$$
CN(C)C(=O)COc1cccc(NC(=O)[C@H]2CCCO2)c1
     RDKit          3D

 21 22  0  0  0  0  0  0  0  0999 V2000
   31.8535   16.9640    7.5666 C   0  0  0  0  0  0  0  0  0  0  0  0
   32.3256   16.0745    8.6016 N   0  0  0  0  0  0  0  0  0  0  0  0
   32.9570   16.7635    9.6885 C   0  0  0  0  0  0  0  0  0  0  0  0
   32.2118   14.6826    8.5960 C   0  0  0  0  0  0  0  0  0  0  0  0
   32.6325   14.0023    9.5301 O   0  0  0  0  0  0  0  0  0  0  0  0
   31.6484   14.0161    7.3330 C   0  0  0  0  0  0  0  0  0  0  0  0
   31.3688   12.6231    7.4601 O   0  0  0  0  0  0  0  0  0  0  0  0
   31.9980   11.7139    6.6769 C   0  0  0  0  0  0  0  0  0  0  0  0
   31.3961   10.4719    6.4698 C   0  0  0  0  0  0  0  0  0  0  0  0
   31.9626    9.5515    5.5967 C   0  0  0  0  0  0  0  0  0  0  0  0
   33.1154    9.8972    4.8990 C   0  0  0  0  0  0  0  0  0  0  0  0
   33.7340   11.1041    5.1830 C   0  0  0  0  0  0  0  0  0  0  0  0
   34.7918   11.6174    4.3994 N   0  0  0  0  0  0  0  0  0  0  0  0
   34.4987   12.8886    3.8948 C   0  0  0  0  0  0  0  0  0  0  0  0
   34.9215   13.9012    4.4511 O   0  0  0  0  0  0  0  0  0  0  0  0
   33.5781   12.8879    2.6703 C   0  0  1  0  0  0  0  0  0  0  0  0
   33.1228   14.2767    2.2589 C   0  0  0  0  0  0  0  0  0  0  0  0
   34.2025   14.7008    1.2964 C   0  0  0  0  0  0  0  0  0  0  0  0
   34.5590   13.3985    0.6179 C   0  0  0  0  0  0  0  0  0  0  0  0
   34.3190   12.3480    1.5599 O   0  0  0  0  0  0  0  0  0  0  0  0
   33.2412   11.9456    6.1599 C   0  0  0  0  0  0  0  0  0  0  0  0
  1  2  1  0
  2  3  1  0
  2  4  1  0
  4  5  2  0
  4  6  1  0
  6  7  1  0
  7  8  1  0
  8  9  2  0
  9 10  1  0
 10 11  2  0
 11 12  1  0
 12 13  1  0
 13 14  1  0
 14 15  2  0
 16 14  1  1
 16 17  1  0
 17 18  1  0
 18 19  1  0
 19 20  1  0
 12 21  2  0
 21  8  1  0
 20 16  1  0
M  END
>  <original ID>  (100) 
None

>  <RMSD>  (100) 
2.594688

>  <submitter_name>  (100) 
None

>  <original SMILES>  (100) 
CN(C)C(=O)COc1cccc(NC(=O)[C@H]2CCCO2)c1

>  <ref_pdb>  (100) 
Ax0310a

>  <method>  (100) 
None

>  <ddG>  (100) 
4.448139

>  <submitter_email>  (100) 
None

>  <ref_url>  (100) 
None

>  <ref_mols>  (100) 
Ax0922a,Ax0416a

>  <tags>  (100) 
['base']

>  <generation_date>  (100) 
None

$$$$
Cc1ccc(OCC(=O)N(C)C)cc1NC(=O)[C@@H]1CCCO1
     RDKit          3D

 22 23  0  0  0  0  0  0  0  0999 V2000
   32.6338    9.6206    3.3974 C   0  0  0  0  0  0  0  0  0  0  0  0
   32.5691   10.2949    4.7096 C   0  0  0  0  0  0  0  0  0  0  0  0
   31.6260    9.8431    5.6260 C   0  0  0  0  0  0  0  0  0  0  0  0
   31.2735   10.6846    6.6495 C   0  0  0  0  0  0  0  0  0  0  0  0
   31.9207   11.9068    6.7934 C   0  0  0  0  0  0  0  0  0  0  0  0
   31.3883   12.8238    7.6406 O   0  0  0  0  0  0  0  0  0  0  0  0
   31.6522   14.2030    7.4215 C   0  0  0  0  0  0  0  0  0  0  0  0
   32.2401   14.8490    8.6751 C   0  0  0  0  0  0  0  0  0  0  0  0
   32.7169   14.1389    9.5628 O   0  0  0  0  0  0  0  0  0  0  0  0
   32.3283   16.2433    8.7341 N   0  0  0  0  0  0  0  0  0  0  0  0
   33.0870   16.8841    9.7818 C   0  0  0  0  0  0  0  0  0  0  0  0
   31.7066   17.1680    7.8006 C   0  0  0  0  0  0  0  0  0  0  0  0
   33.0965   12.1267    6.1390 C   0  0  0  0  0  0  0  0  0  0  0  0
   33.3143   11.4467    4.9744 C   0  0  0  0  0  0  0  0  0  0  0  0
   34.1408   12.0200    4.0037 N   0  0  0  0  0  0  0  0  0  0  0  0
   34.4105   13.3822    3.9339 C   0  0  0  0  0  0  0  0  0  0  0  0
   34.2388   14.2349    4.8014 O   0  0  0  0  0  0  0  0  0  0  0  0
   34.8633   13.7898    2.5373 C   0  0  2  0  0  0  0  0  0  0  0  0
   33.8232   14.7166    1.9218 C   0  0  0  0  0  0  0  0  0  0  0  0
   33.9119   14.3793    0.4592 C   0  0  0  0  0  0  0  0  0  0  0  0
   34.1726   12.8940    0.5013 C   0  0  0  0  0  0  0  0  0  0  0  0
   34.9889   12.6559    1.6533 O   0  0  0  0  0  0  0  0  0  0  0  0
  1  2  1  0
  2  3  2  0
  3  4  1  0
  4  5  2  0
  5  6  1  0
  6  7  1  0
  7  8  1  0
  8  9  2  0
  8 10  1  0
 10 11  1  0
 10 12  1  0
  5 13  1  0
 13 14  2  0
 14 15  1  0
 15 16  1  0
 16 17  2  0
 18 16  1  1
 18 19  1  0
 19 20  1  0
 20 21  1  0
 21 22  1  0
 14  2  1  0
 22 18  1  0
M  END
>  <original ID>  (101) 
None

>  <RMSD>  (101) 
2.666068

>  <submitter_name>  (101) 
None

>  <original SMILES>  (101) 
Cc1ccc(OCC(=O)N(C)C)cc1NC(=O)[C@@H]1CCCO1

>  <ref_pdb>  (101) 
Ax0310a

>  <method>  (101) 
None

>  <ddG>  (101) 
-17.896745

>  <submitter_email>  (101) 
None

>  <ref_url>  (101) 
None

>  <ref_mols>  (101) 
Ax0922a,Ax0416a

>  <tags>  (101) 
['base']

>  <generation_date>  (101) 
None

$$$$
Cc1ccc(OCC(=O)N(C)C)cc1NC(=O)[C@H]1CCCO1
     RDKit          3D

 22 23  0  0  0  0  0  0  0  0999 V2000
   32.9167    9.4747    4.0136 C   0  0  0  0  0  0  0  0  0  0  0  0
   32.6185   10.4632    5.0695 C   0  0  0  0  0  0  0  0  0  0  0  0
   31.6804   10.1180    6.0269 C   0  0  0  0  0  0  0  0  0  0  0  0
   31.2698   11.0887    6.9044 C   0  0  0  0  0  0  0  0  0  0  0  0
   31.8328   12.3683    6.9076 C   0  0  0  0  0  0  0  0  0  0  0  0
   31.3922   13.3480    7.7728 O   0  0  0  0  0  0  0  0  0  0  0  0
   32.3955   13.8145    8.6367 C   0  0  0  0  0  0  0  0  0  0  0  0
   32.8186   15.2131    9.0331 C   0  0  0  0  0  0  0  0  0  0  0  0
   33.8169   15.3071    9.7484 O   0  0  0  0  0  0  0  0  0  0  0  0
   32.0994   16.3150    8.6937 N   0  0  0  0  0  0  0  0  0  0  0  0
   31.8686   16.5437    7.2955 C   0  0  0  0  0  0  0  0  0  0  0  0
   32.1622   17.5075    9.4999 C   0  0  0  0  0  0  0  0  0  0  0  0
   32.8132   12.6719    6.0096 C   0  0  0  0  0  0  0  0  0  0  0  0
   33.1741   11.7490    5.0526 C   0  0  0  0  0  0  0  0  0  0  0  0
   33.9695   12.1521    3.9786 N   0  0  0  0  0  0  0  0  0  0  0  0
   34.1522   13.4895    3.6603 C   0  0  0  0  0  0  0  0  0  0  0  0
   34.3454   14.4189    4.4352 O   0  0  0  0  0  0  0  0  0  0  0  0
   33.9114   13.6829    2.1735 C   0  0  1  0  0  0  0  0  0  0  0  0
   34.3185   15.0410    1.6534 C   0  0  0  0  0  0  0  0  0  0  0  0
   34.6727   14.7174    0.2270 C   0  0  0  0  0  0  0  0  0  0  0  0
   35.3276   13.3616    0.3710 C   0  0  0  0  0  0  0  0  0  0  0  0
   34.6257   12.6844    1.4190 O   0  0  0  0  0  0  0  0  0  0  0  0
  1  2  1  0
  2  3  2  0
  3  4  1  0
  4  5  2  0
  5  6  1  0
  6  7  1  0
  7  8  1  0
  8  9  2  0
  8 10  1  0
 10 11  1  0
 10 12  1  0
  5 13  1  0
 13 14  2  0
 14 15  1  0
 15 16  1  0
 16 17  2  0
 18 16  1  1
 18 19  1  0
 19 20  1  0
 20 21  1  0
 21 22  1  0
 14  2  1  0
 22 18  1  0
M  END
>  <original ID>  (102) 
None

>  <RMSD>  (102) 
2.785416

>  <submitter_name>  (102) 
None

>  <original SMILES>  (102) 
Cc1ccc(OCC(=O)N(C)C)cc1NC(=O)[C@H]1CCCO1

>  <ref_pdb>  (102) 
Ax0310a

>  <method>  (102) 
None

>  <ddG>  (102) 
-14.168631

>  <submitter_email>  (102) 
None

>  <ref_url>  (102) 
None

>  <ref_mols>  (102) 
Ax0922a,Ax0416a

>  <tags>  (102) 
['base']

>  <generation_date>  (102) 
None

$$$$
CN(C)C(=O)COc1ccc(F)c(NC(=O)[C@@H]2CCCO2)c1
     RDKit          3D

 22 23  0  0  0  0  0  0  0  0999 V2000
   33.0925   16.8692    9.7752 C   0  0  0  0  0  0  0  0  0  0  0  0
   32.3303   16.2300    8.7287 N   0  0  0  0  0  0  0  0  0  0  0  0
   31.7117   17.1574    7.7954 C   0  0  0  0  0  0  0  0  0  0  0  0
   32.2356   14.8367    8.6710 C   0  0  0  0  0  0  0  0  0  0  0  0
   32.7098   14.1232    9.5571 O   0  0  0  0  0  0  0  0  0  0  0  0
   31.6419   14.1931    7.4184 C   0  0  0  0  0  0  0  0  0  0  0  0
   31.3800   12.8101    7.6291 O   0  0  0  0  0  0  0  0  0  0  0  0
   31.9296   11.8954    6.7905 C   0  0  0  0  0  0  0  0  0  0  0  0
   31.2856   10.6657    6.6343 C   0  0  0  0  0  0  0  0  0  0  0  0
   31.6678    9.8185    5.6251 C   0  0  0  0  0  0  0  0  0  0  0  0
   32.6341   10.2864    4.7602 C   0  0  0  0  0  0  0  0  0  0  0  0
   32.7660    9.6880    3.5860 F   0  0  0  0  0  0  0  0  0  0  0  0
   33.3610   11.4421    5.0061 C   0  0  0  0  0  0  0  0  0  0  0  0
   34.1768   11.9909    4.0141 N   0  0  0  0  0  0  0  0  0  0  0  0
   34.4307   13.3533    3.9162 C   0  0  0  0  0  0  0  0  0  0  0  0
   34.2539   14.2113    4.7782 O   0  0  0  0  0  0  0  0  0  0  0  0
   34.8706   13.7510    2.5138 C   0  0  2  0  0  0  0  0  0  0  0  0
   33.8277   14.6766    1.9015 C   0  0  0  0  0  0  0  0  0  0  0  0
   33.9104   14.3351    0.4395 C   0  0  0  0  0  0  0  0  0  0  0  0
   34.1706   12.8495    0.4845 C   0  0  0  0  0  0  0  0  0  0  0  0
   34.9865   12.6127    1.6374 O   0  0  0  0  0  0  0  0  0  0  0  0
   33.1157   12.1328    6.1549 C   0  0  0  0  0  0  0  0  0  0  0  0
  1  2  1  0
  2  3  1  0
  2  4  1  0
  4  5  2  0
  4  6  1  0
  6  7  1  0
  7  8  1  0
  8  9  2  0
  9 10  1  0
 10 11  2  0
 11 12  1  0
 11 13  1  0
 13 14  1  0
 14 15  1  0
 15 16  2  0
 17 15  1  1
 17 18  1  0
 18 19  1  0
 19 20  1  0
 20 21  1  0
 13 22  2  0
 22  8  1  0
 21 17  1  0
M  END
>  <original ID>  (103) 
None

>  <RMSD>  (103) 
2.403669

>  <submitter_name>  (103) 
None

>  <original SMILES>  (103) 
CN(C)C(=O)COc1ccc(F)c(NC(=O)[C@@H]2CCCO2)c1

>  <ref_pdb>  (103) 
Ax0310a

>  <method>  (103) 
None

>  <ddG>  (103) 
-5.363588

>  <submitter_email>  (103) 
None

>  <ref_url>  (103) 
None

>  <ref_mols>  (103) 
Ax0922a,Ax0416a

>  <tags>  (103) 
['base']

>  <generation_date>  (103) 
None

$$$$
CN(C)C(=O)COc1ccc(F)c(NC(=O)[C@H]2CCCO2)c1
     RDKit          3D

 22 23  0  0  0  0  0  0  0  0999 V2000
   31.7472   14.5647    8.6649 C   0  0  0  0  0  0  0  0  0  0  0  0
   32.4988   13.4599    8.2215 N   0  0  0  0  0  0  0  0  0  0  0  0
   33.8963   13.7861    8.2674 C   0  0  0  0  0  0  0  0  0  0  0  0
   31.9694   12.9688    7.0239 C   0  0  0  0  0  0  0  0  0  0  0  0
   31.8316   13.7302    6.0635 O   0  0  0  0  0  0  0  0  0  0  0  0
   31.1616   11.5661    6.9989 C   0  0  0  0  0  0  0  0  0  0  0  0
   31.2251   10.1575    7.0781 O   0  0  0  0  0  0  0  0  0  0  0  0
   32.1824    9.6241    6.2381 C   0  0  0  0  0  0  0  0  0  0  0  0
   33.2624    9.1134    6.9304 C   0  0  0  0  0  0  0  0  0  0  0  0
   34.4279    9.8330    6.7908 C   0  0  0  0  0  0  0  0  0  0  0  0
   34.4594   10.8657    5.8624 C   0  0  0  0  0  0  0  0  0  0  0  0
   35.4227   11.7723    5.9699 F   0  0  0  0  0  0  0  0  0  0  0  0
   33.4685   10.9988    4.8980 C   0  0  0  0  0  0  0  0  0  0  0  0
   33.4280   11.9885    3.9232 N   0  0  0  0  0  0  0  0  0  0  0  0
   33.9312   13.2765    4.0266 C   0  0  0  0  0  0  0  0  0  0  0  0
   34.5150   13.7843    4.9745 O   0  0  0  0  0  0  0  0  0  0  0  0
   33.5536   14.0542    2.7663 C   0  0  1  0  0  0  0  0  0  0  0  0
   34.4213   15.2638    2.4967 C   0  0  0  0  0  0  0  0  0  0  0  0
   34.5891   15.2231    0.9981 C   0  0  0  0  0  0  0  0  0  0  0  0
   34.6410   13.7400    0.7340 C   0  0  0  0  0  0  0  0  0  0  0  0
   33.6764   13.1723    1.6214 O   0  0  0  0  0  0  0  0  0  0  0  0
   32.3461   10.2077    4.9991 C   0  0  0  0  0  0  0  0  0  0  0  0
  1  2  1  0
  2  3  1  0
  2  4  1  0
  4  5  2  0
  4  6  1  0
  6  7  1  0
  7  8  1  0
  8  9  2  0
  9 10  1  0
 10 11  2  0
 11 12  1  0
 11 13  1  0
 13 14  1  0
 14 15  1  0
 15 16  2  0
 17 15  1  1
 17 18  1  0
 18 19  1  0
 19 20  1  0
 20 21  1  0
 13 22  2  0
 22  8  1  0
 21 17  1  0
M  END
>  <original ID>  (104) 
None

>  <RMSD>  (104) 
2.898695

>  <submitter_name>  (104) 
None

>  <original SMILES>  (104) 
CN(C)C(=O)COc1ccc(F)c(NC(=O)[C@H]2CCCO2)c1

>  <ref_pdb>  (104) 
Ax0310a

>  <method>  (104) 
None

>  <ddG>  (104) 
65.813799

>  <submitter_email>  (104) 
None

>  <ref_url>  (104) 
None

>  <ref_mols>  (104) 
Ax0922a,Ax0416a

>  <tags>  (104) 
['base']

>  <generation_date>  (104) 
None

$$$$
Cc1ccc(NC(=O)[C@@H]2CCCO2)cc1OCC(=O)N(C)C
     RDKit          3D

 22 23  0  0  0  0  0  0  0  0999 V2000
   31.0626    9.4360    6.8870 C   0  0  0  0  0  0  0  0  0  0  0  0
   32.0442   10.2968    6.1919 C   0  0  0  0  0  0  0  0  0  0  0  0
   32.8423    9.6172    5.2645 C   0  0  0  0  0  0  0  0  0  0  0  0
   33.8324   10.2916    4.5865 C   0  0  0  0  0  0  0  0  0  0  0  0
   34.0926   11.6007    4.9363 C   0  0  0  0  0  0  0  0  0  0  0  0
   34.8397   12.3903    4.0683 N   0  0  0  0  0  0  0  0  0  0  0  0
   34.6235   13.7588    3.9447 C   0  0  0  0  0  0  0  0  0  0  0  0
   34.1796   14.5323    4.7890 O   0  0  0  0  0  0  0  0  0  0  0  0
   34.9119   14.2291    2.5229 C   0  0  2  0  0  0  0  0  0  0  0  0
   33.6545   14.8435    1.9212 C   0  0  0  0  0  0  0  0  0  0  0  0
   33.7455   14.4341    0.4763 C   0  0  0  0  0  0  0  0  0  0  0  0
   34.3617   13.0615    0.5817 C   0  0  0  0  0  0  0  0  0  0  0  0
   35.2899   13.1232    1.6704 O   0  0  0  0  0  0  0  0  0  0  0  0
   33.4678   12.1760    6.0203 C   0  0  0  0  0  0  0  0  0  0  0  0
   32.3091   11.6359    6.5144 C   0  0  0  0  0  0  0  0  0  0  0  0
   31.4599   12.3880    7.2807 O   0  0  0  0  0  0  0  0  0  0  0  0
   31.6306   13.8269    7.3229 C   0  0  0  0  0  0  0  0  0  0  0  0
   32.2298   14.5134    8.5713 C   0  0  0  0  0  0  0  0  0  0  0  0
   32.6468   13.8626    9.5259 O   0  0  0  0  0  0  0  0  0  0  0  0
   32.3566   15.9065    8.5469 N   0  0  0  0  0  0  0  0  0  0  0  0
   33.1026   16.5966    9.5734 C   0  0  0  0  0  0  0  0  0  0  0  0
   31.8182   16.7793    7.5166 C   0  0  0  0  0  0  0  0  0  0  0  0
  1  2  1  0
  2  3  2  0
  3  4  1  0
  4  5  2  0
  5  6  1  0
  6  7  1  0
  7  8  2  0
  9  7  1  1
  9 10  1  0
 10 11  1  0
 11 12  1  0
 12 13  1  0
  5 14  1  0
 14 15  2  0
 15 16  1  0
 16 17  1  0
 17 18  1  0
 18 19  2  0
 18 20  1  0
 20 21  1  0
 20 22  1  0
 15  2  1  0
 13  9  1  0
M  END
>  <original ID>  (105) 
None

>  <RMSD>  (105) 
2.666316

>  <submitter_name>  (105) 
None

>  <original SMILES>  (105) 
Cc1ccc(NC(=O)[C@@H]2CCCO2)cc1OCC(=O)N(C)C

>  <ref_pdb>  (105) 
Ax0310a

>  <method>  (105) 
None

>  <ddG>  (105) 
-3.001216

>  <submitter_email>  (105) 
None

>  <ref_url>  (105) 
None

>  <ref_mols>  (105) 
Ax0922a,Ax0416a

>  <tags>  (105) 
['base']

>  <generation_date>  (105) 
None

$$$$
Cc1ccc(NC(=O)[C@H]2CCCO2)cc1OCC(=O)N(C)C
     RDKit          3D

 22 23  0  0  0  0  0  0  0  0999 V2000
   31.1599    9.3393    6.8851 C   0  0  0  0  0  0  0  0  0  0  0  0
   32.1509   10.2292    6.2376 C   0  0  0  0  0  0  0  0  0  0  0  0
   33.0678    9.5642    5.4226 C   0  0  0  0  0  0  0  0  0  0  0  0
   34.0440   10.2779    4.7705 C   0  0  0  0  0  0  0  0  0  0  0  0
   34.1105   11.6449    4.9637 C   0  0  0  0  0  0  0  0  0  0  0  0
   34.9341   12.3896    4.1147 N   0  0  0  0  0  0  0  0  0  0  0  0
   34.5473   13.6916    3.8325 C   0  0  0  0  0  0  0  0  0  0  0  0
   34.6081   14.6288    4.6170 O   0  0  0  0  0  0  0  0  0  0  0  0
   33.8922   13.7530    2.4607 C   0  0  1  0  0  0  0  0  0  0  0  0
   33.8305   15.1411    1.8670 C   0  0  0  0  0  0  0  0  0  0  0  0
   33.9348   14.8479    0.3934 C   0  0  0  0  0  0  0  0  0  0  0  0
   34.9030   13.6874    0.3726 C   0  0  0  0  0  0  0  0  0  0  0  0
   34.6231   12.9097    1.5403 O   0  0  0  0  0  0  0  0  0  0  0  0
   33.2789   12.2892    5.8671 C   0  0  0  0  0  0  0  0  0  0  0  0
   32.2665   11.6098    6.4814 C   0  0  0  0  0  0  0  0  0  0  0  0
   31.4006   12.2161    7.3176 O   0  0  0  0  0  0  0  0  0  0  0  0
   31.3715   13.5976    7.6530 C   0  0  0  0  0  0  0  0  0  0  0  0
   32.2760   14.7895    7.8919 C   0  0  0  0  0  0  0  0  0  0  0  0
   32.6841   15.4457    6.9382 O   0  0  0  0  0  0  0  0  0  0  0  0
   32.5375   15.2000    9.1904 N   0  0  0  0  0  0  0  0  0  0  0  0
   33.8105   14.6450    9.5884 C   0  0  0  0  0  0  0  0  0  0  0  0
   32.4805   16.6550    9.3208 C   0  0  0  0  0  0  0  0  0  0  0  0
  1  2  1  0
  2  3  2  0
  3  4  1  0
  4  5  2  0
  5  6  1  0
  6  7  1  0
  7  8  2  0
  9  7  1  1
  9 10  1  0
 10 11  1  0
 11 12  1  0
 12 13  1  0
  5 14  1  0
 14 15  2  0
 15 16  1  0
 16 17  1  0
 17 18  1  0
 18 19  2  0
 18 20  1  0
 20 21  1  0
 20 22  1  0
 15  2  1  0
 13  9  1  0
M  END
>  <original ID>  (106) 
None

>  <RMSD>  (106) 
2.838484

>  <submitter_name>  (106) 
None

>  <original SMILES>  (106) 
Cc1ccc(NC(=O)[C@H]2CCCO2)cc1OCC(=O)N(C)C

>  <ref_pdb>  (106) 
Ax0310a

>  <method>  (106) 
None

>  <ddG>  (106) 
14.199663

>  <submitter_email>  (106) 
None

>  <ref_url>  (106) 
None

>  <ref_mols>  (106) 
Ax0922a,Ax0416a

>  <tags>  (106) 
['base']

>  <generation_date>  (106) 
None

$$$$
Cc1cc(C)c(OCC(=O)N(C)C)cc1NC(=O)[C@@H]1CCCO1
     RDKit          3D

 23 24  0  0  0  0  0  0  0  0999 V2000
   36.5892   11.1825    6.9904 C   0  0  0  0  0  0  0  0  0  0  0  0
   35.2991   11.0341    6.2461 C   0  0  0  0  0  0  0  0  0  0  0  0
   34.3904   10.0403    6.6561 C   0  0  0  0  0  0  0  0  0  0  0  0
   33.1110    9.9645    6.1017 C   0  0  0  0  0  0  0  0  0  0  0  0
   32.1230    8.9443    6.5673 C   0  0  0  0  0  0  0  0  0  0  0  0
   32.7779   10.8907    5.1217 C   0  0  0  0  0  0  0  0  0  0  0  0
   31.4844   11.0891    4.7413 O   0  0  0  0  0  0  0  0  0  0  0  0
   30.9665   12.1298    5.5550 C   0  0  0  0  0  0  0  0  0  0  0  0
   31.2784   13.6406    5.3392 C   0  0  0  0  0  0  0  0  0  0  0  0
   30.9963   14.1595    4.2549 O   0  0  0  0  0  0  0  0  0  0  0  0
   31.8088   14.4126    6.3702 N   0  0  0  0  0  0  0  0  0  0  0  0
   31.7124   15.8565    6.2280 C   0  0  0  0  0  0  0  0  0  0  0  0
   32.1674   13.9178    7.6812 C   0  0  0  0  0  0  0  0  0  0  0  0
   33.7136   11.7523    4.5840 C   0  0  0  0  0  0  0  0  0  0  0  0
   34.9705   11.8575    5.1594 C   0  0  0  0  0  0  0  0  0  0  0  0
   35.8317   12.8778    4.7180 N   0  0  0  0  0  0  0  0  0  0  0  0
   35.7459   13.4480    3.4570 C   0  0  0  0  0  0  0  0  0  0  0  0
   35.2367   12.9031    2.4793 O   0  0  0  0  0  0  0  0  0  0  0  0
   36.2954   14.8796    3.3896 C   0  0  2  0  0  0  0  0  0  0  0  0
   35.2167   15.8543    3.8320 C   0  0  0  0  0  0  0  0  0  0  0  0
   34.4225   16.0426    2.5595 C   0  0  0  0  0  0  0  0  0  0  0  0
   35.4771   15.9141    1.4768 C   0  0  0  0  0  0  0  0  0  0  0  0
   36.6252   15.2706    2.0541 O   0  0  0  0  0  0  0  0  0  0  0  0
  1  2  1  0
  2  3  2  0
  3  4  1  0
  4  5  1  0
  4  6  2  0
  6  7  1  0
  7  8  1  0
  8  9  1  0
  9 10  2  0
  9 11  1  0
 11 12  1  0
 11 13  1  0
  6 14  1  0
 14 15  2  0
 15 16  1  0
 16 17  1  0
 17 18  2  0
 19 17  1  6
 19 20  1  0
 20 21  1  0
 21 22  1  0
 22 23  1  0
 15  2  1  0
 23 19  1  0
M  END
>  <original ID>  (107) 
None

>  <RMSD>  (107) 
3.899089

>  <submitter_name>  (107) 
None

>  <original SMILES>  (107) 
Cc1cc(C)c(OCC(=O)N(C)C)cc1NC(=O)[C@@H]1CCCO1

>  <ref_pdb>  (107) 
Ax0310a

>  <method>  (107) 
None

>  <ddG>  (107) 
-20.837706

>  <submitter_email>  (107) 
None

>  <ref_url>  (107) 
None

>  <ref_mols>  (107) 
Ax0922a,Ax0416a

>  <tags>  (107) 
['base']

>  <generation_date>  (107) 
None

$$$$
Cc1cc(C)c(OCC(=O)N(C)C)cc1NC(=O)[C@H]1CCCO1
     RDKit          3D

 23 24  0  0  0  0  0  0  0  0999 V2000
   33.6853   10.0922    3.0213 C   0  0  0  0  0  0  0  0  0  0  0  0
   33.3878   10.5200    4.4004 C   0  0  0  0  0  0  0  0  0  0  0  0
   32.4404    9.8151    5.1036 C   0  0  0  0  0  0  0  0  0  0  0  0
   31.8448   10.4020    6.2024 C   0  0  0  0  0  0  0  0  0  0  0  0
   30.9606    9.4946    6.9570 C   0  0  0  0  0  0  0  0  0  0  0  0
   32.2290   11.6866    6.5958 C   0  0  0  0  0  0  0  0  0  0  0  0
   31.4265   12.4595    7.3806 O   0  0  0  0  0  0  0  0  0  0  0  0
   31.6203   13.8879    7.3630 C   0  0  0  0  0  0  0  0  0  0  0  0
   32.2155   14.5745    8.6043 C   0  0  0  0  0  0  0  0  0  0  0  0
   32.6341   13.9188    9.5551 O   0  0  0  0  0  0  0  0  0  0  0  0
   32.3292   15.9665    8.5775 N   0  0  0  0  0  0  0  0  0  0  0  0
   31.8961   16.8222    7.4978 C   0  0  0  0  0  0  0  0  0  0  0  0
   32.9651   16.6847    9.6422 C   0  0  0  0  0  0  0  0  0  0  0  0
   33.4283   12.1675    6.1388 C   0  0  0  0  0  0  0  0  0  0  0  0
   33.9128   11.6788    4.9527 C   0  0  0  0  0  0  0  0  0  0  0  0
   34.7525   12.5061    4.1947 N   0  0  0  0  0  0  0  0  0  0  0  0
   34.2550   13.7910    3.9681 C   0  0  0  0  0  0  0  0  0  0  0  0
   34.0477   14.6508    4.8171 O   0  0  0  0  0  0  0  0  0  0  0  0
   33.8084   13.9090    2.5145 C   0  0  1  0  0  0  0  0  0  0  0  0
   33.8280   15.3176    1.9739 C   0  0  0  0  0  0  0  0  0  0  0  0
   34.0822   15.0736    0.5088 C   0  0  0  0  0  0  0  0  0  0  0  0
   35.0390   13.9035    0.5438 C   0  0  0  0  0  0  0  0  0  0  0  0
   34.6538   13.1012    1.6640 O   0  0  0  0  0  0  0  0  0  0  0  0
  1  2  1  0
  2  3  2  0
  3  4  1  0
  4  5  1  0
  4  6  2  0
  6  7  1  0
  7  8  1  0
  8  9  1  0
  9 10  2  0
  9 11  1  0
 11 12  1  0
 11 13  1  0
  6 14  1  0
 14 15  2  0
 15 16  1  0
 16 17  1  0
 17 18  2  0
 19 17  1  1
 19 20  1  0
 20 21  1  0
 21 22  1  0
 22 23  1  0
 15  2  1  0
 23 19  1  0
M  END
>  <original ID>  (108) 
None

>  <RMSD>  (108) 
2.889358

>  <submitter_name>  (108) 
None

>  <original SMILES>  (108) 
Cc1cc(C)c(OCC(=O)N(C)C)cc1NC(=O)[C@H]1CCCO1

>  <ref_pdb>  (108) 
Ax0310a

>  <method>  (108) 
None

>  <ddG>  (108) 
-12.859203

>  <submitter_email>  (108) 
None

>  <ref_url>  (108) 
None

>  <ref_mols>  (108) 
Ax0922a,Ax0416a

>  <tags>  (108) 
['base']

>  <generation_date>  (108) 
None

$$$$
CN(C)C(=O)COc1cncc(NC(=O)[C@@H]2CCCO2)c1
     RDKit          3D

 21 22  0  0  0  0  0  0  0  0999 V2000
   33.0659   16.5822    9.5760 C   0  0  0  0  0  0  0  0  0  0  0  0
   32.3263   15.8722    8.5571 N   0  0  0  0  0  0  0  0  0  0  0  0
   31.8254   16.7275    7.4950 C   0  0  0  0  0  0  0  0  0  0  0  0
   32.1772   14.4820    8.6250 C   0  0  0  0  0  0  0  0  0  0  0  0
   32.5630   13.8576    9.6096 O   0  0  0  0  0  0  0  0  0  0  0  0
   31.7185   13.7383    7.3513 C   0  0  0  0  0  0  0  0  0  0  0  0
   31.3231   12.3473    7.3772 O   0  0  0  0  0  0  0  0  0  0  0  0
   31.7503   11.5094    6.3934 C   0  0  0  0  0  0  0  0  0  0  0  0
   31.6969   10.1232    6.5009 C   0  0  0  0  0  0  0  0  0  0  0  0
   32.3407    9.2613    5.6650 N   0  0  0  0  0  0  0  0  0  0  0  0
   33.1275    9.8328    4.7290 C   0  0  0  0  0  0  0  0  0  0  0  0
   33.1718   11.2011    4.5265 C   0  0  0  0  0  0  0  0  0  0  0  0
   34.0387   11.8284    3.6355 N   0  0  0  0  0  0  0  0  0  0  0  0
   34.4322   13.1579    3.7843 C   0  0  0  0  0  0  0  0  0  0  0  0
   34.2898   13.8625    4.7823 O   0  0  0  0  0  0  0  0  0  0  0  0
   34.9789   13.7387    2.4923 C   0  0  2  0  0  0  0  0  0  0  0  0
   33.9170   14.6351    1.8678 C   0  0  0  0  0  0  0  0  0  0  0  0
   34.1242   14.4116    0.3956 C   0  0  0  0  0  0  0  0  0  0  0  0
   34.5101   12.9534    0.3539 C   0  0  0  0  0  0  0  0  0  0  0  0
   35.2802   12.7031    1.5357 O   0  0  0  0  0  0  0  0  0  0  0  0
   32.3282   12.0008    5.2643 C   0  0  0  0  0  0  0  0  0  0  0  0
  1  2  1  0
  2  3  1  0
  2  4  1  0
  4  5  2  0
  4  6  1  0
  6  7  1  0
  7  8  1  0
  8  9  2  0
  9 10  1  0
 10 11  2  0
 11 12  1  0
 12 13  1  0
 13 14  1  0
 14 15  2  0
 16 14  1  1
 16 17  1  0
 17 18  1  0
 18 19  1  0
 19 20  1  0
 12 21  2  0
 21  8  1  0
 20 16  1  0
M  END
>  <original ID>  (109) 
None

>  <RMSD>  (109) 
2.121705

>  <submitter_name>  (109) 
None

>  <original SMILES>  (109) 
CN(C)C(=O)COc1cncc(NC(=O)[C@@H]2CCCO2)c1

>  <ref_pdb>  (109) 
Ax0310a

>  <method>  (109) 
None

>  <ddG>  (109) 
-13.901193

>  <submitter_email>  (109) 
None

>  <ref_url>  (109) 
None

>  <ref_mols>  (109) 
Ax0922a,Ax0416a

>  <tags>  (109) 
['base']

>  <generation_date>  (109) 
None

$$$$
CN(C)C(=O)COc1cncc(NC(=O)[C@H]2CCCO2)c1
     RDKit          3D

 21 22  0  0  0  0  0  0  0  0999 V2000
   31.7992   16.8726    7.5767 C   0  0  0  0  0  0  0  0  0  0  0  0
   32.3542   15.9781    8.5788 N   0  0  0  0  0  0  0  0  0  0  0  0
   33.1012   16.6504    9.6170 C   0  0  0  0  0  0  0  0  0  0  0  0
   32.2188   14.5866    8.5877 C   0  0  0  0  0  0  0  0  0  0  0  0
   32.6413   13.9158    9.5272 O   0  0  0  0  0  0  0  0  0  0  0  0
   31.6336   13.9087    7.3343 C   0  0  0  0  0  0  0  0  0  0  0  0
   31.3519   12.5011    7.4117 O   0  0  0  0  0  0  0  0  0  0  0  0
   32.0357   11.6012    6.6627 C   0  0  0  0  0  0  0  0  0  0  0  0
   31.5397   10.3165    6.4436 C   0  0  0  0  0  0  0  0  0  0  0  0
   32.1258    9.3985    5.6302 N   0  0  0  0  0  0  0  0  0  0  0  0
   33.1969    9.8399    4.9387 C   0  0  0  0  0  0  0  0  0  0  0  0
   33.7239   11.1143    5.1001 C   0  0  0  0  0  0  0  0  0  0  0  0
   34.4953   11.7198    4.0928 N   0  0  0  0  0  0  0  0  0  0  0  0
   34.3086   13.0875    3.8368 C   0  0  0  0  0  0  0  0  0  0  0  0
   34.2769   13.9978    4.6600 O   0  0  0  0  0  0  0  0  0  0  0  0
   33.9400   13.2998    2.3749 C   0  0  1  0  0  0  0  0  0  0  0  0
   34.0094   14.7445    1.9278 C   0  0  0  0  0  0  0  0  0  0  0  0
   34.3346   14.5912    0.4663 C   0  0  0  0  0  0  0  0  0  0  0  0
   35.2672   13.4002    0.4811 C   0  0  0  0  0  0  0  0  0  0  0  0
   34.7967   12.5278    1.5162 O   0  0  0  0  0  0  0  0  0  0  0  0
   33.2523   11.8974    6.1273 C   0  0  0  0  0  0  0  0  0  0  0  0
  1  2  1  0
  2  3  1  0
  2  4  1  0
  4  5  2  0
  4  6  1  0
  6  7  1  0
  7  8  1  0
  8  9  2  0
  9 10  1  0
 10 11  2  0
 11 12  1  0
 12 13  1  0
 13 14  1  0
 14 15  2  0
 16 14  1  1
 16 17  1  0
 17 18  1  0
 18 19  1  0
 19 20  1  0
 12 21  2  0
 21  8  1  0
 20 16  1  0
M  END
>  <original ID>  (110) 
None

>  <RMSD>  (110) 
2.196577

>  <submitter_name>  (110) 
None

>  <original SMILES>  (110) 
CN(C)C(=O)COc1cncc(NC(=O)[C@H]2CCCO2)c1

>  <ref_pdb>  (110) 
Ax0310a

>  <method>  (110) 
None

>  <ddG>  (110) 
-5.294676

>  <submitter_email>  (110) 
None

>  <ref_url>  (110) 
None

>  <ref_mols>  (110) 
Ax0922a,Ax0416a

>  <tags>  (110) 
['base']

>  <generation_date>  (110) 
None

$$$$
N#CCC(=O)Nc1ccccc1NC(=O)CO
     RDKit          3D

 17 17  0  0  0  0  0  0  0  0999 V2000
   29.4162   16.4896    5.4426 N   0  0  0  0  0  0  0  0  0  0  0  0
   30.1973   15.6965    5.7741 C   0  0  0  0  0  0  0  0  0  0  0  0
   31.2504   14.8041    6.2330 C   0  0  0  0  0  0  0  0  0  0  0  0
   31.0786   13.3496    5.8674 C   0  0  0  0  0  0  0  0  0  0  0  0
   30.4734   12.9363    4.8887 O   0  0  0  0  0  0  0  0  0  0  0  0
   31.7301   12.5398    6.7878 N   0  0  0  0  0  0  0  0  0  0  0  0
   32.2788   11.3011    6.4148 C   0  0  0  0  0  0  0  0  0  0  0  0
   31.5086   10.1556    6.3278 C   0  0  0  0  0  0  0  0  0  0  0  0
   32.1402    8.9195    6.2671 C   0  0  0  0  0  0  0  0  0  0  0  0
   33.5377    8.8382    6.3095 C   0  0  0  0  0  0  0  0  0  0  0  0
   34.3100    9.9950    6.4110 C   0  0  0  0  0  0  0  0  0  0  0  0
   33.6740   11.2265    6.4380 C   0  0  0  0  0  0  0  0  0  0  0  0
   34.3647   12.4524    6.4657 N   0  0  0  0  0  0  0  0  0  0  0  0
   35.1965   12.8101    7.5139 C   0  0  0  0  0  0  0  0  0  0  0  0
   35.6977   12.0464    8.3261 O   0  0  0  0  0  0  0  0  0  0  0  0
   35.3614   14.3327    7.6030 C   0  0  0  0  0  0  0  0  0  0  0  0
   34.8430   15.0017    6.4524 O   0  0  0  0  0  0  0  0  0  0  0  0
  1  2  3  0
  2  3  1  0
  3  4  1  0
  4  5  2  0
  4  6  1  0
  6  7  1  0
  7  8  2  0
  8  9  1  0
  9 10  2  0
 10 11  1  0
 11 12  2  0
 12 13  1  0
 13 14  1  0
 14 15  2  0
 14 16  1  0
 16 17  1  0
 12  7  1  0
M  END
>  <original ID>  (111) 
None

>  <RMSD>  (111) 
2.002661

>  <submitter_name>  (111) 
None

>  <original SMILES>  (111) 
N#CCC(=O)Nc1ccccc1NC(=O)CO

>  <ref_pdb>  (111) 
Ax0310a

>  <method>  (111) 
None

>  <ddG>  (111) 
-40.057074

>  <submitter_email>  (111) 
None

>  <ref_url>  (111) 
None

>  <ref_mols>  (111) 
Ax0732a,Ax0310a

>  <tags>  (111) 
['base']

>  <generation_date>  (111) 
None

$$$$
N#CCC(=O)Nc1ccncc1NC(=O)CO
     RDKit          3D

 17 17  0  0  0  0  0  0  0  0999 V2000
   29.8587   16.2241    5.5731 N   0  0  0  0  0  0  0  0  0  0  0  0
   30.5243   15.4398    6.1141 C   0  0  0  0  0  0  0  0  0  0  0  0
   31.3797   14.4929    6.8300 C   0  0  0  0  0  0  0  0  0  0  0  0
   31.5040   13.2100    6.0655 C   0  0  0  0  0  0  0  0  0  0  0  0
   31.5805   13.1654    4.8438 O   0  0  0  0  0  0  0  0  0  0  0  0
   31.5684   12.0957    6.8664 N   0  0  0  0  0  0  0  0  0  0  0  0
   32.1637   10.9130    6.4531 C   0  0  0  0  0  0  0  0  0  0  0  0
   31.4160    9.7526    6.5678 C   0  0  0  0  0  0  0  0  0  0  0  0
   31.9439    8.6094    6.0336 C   0  0  0  0  0  0  0  0  0  0  0  0
   33.1678    8.5432    5.4740 N   0  0  0  0  0  0  0  0  0  0  0  0
   33.8997    9.6880    5.4504 C   0  0  0  0  0  0  0  0  0  0  0  0
   33.4660   10.9025    5.9541 C   0  0  0  0  0  0  0  0  0  0  0  0
   34.3274   12.0351    5.9730 N   0  0  0  0  0  0  0  0  0  0  0  0
   34.4751   12.8948    7.0577 C   0  0  0  0  0  0  0  0  0  0  0  0
   33.9866   12.7396    8.1707 O   0  0  0  0  0  0  0  0  0  0  0  0
   35.3465   14.1211    6.7830 C   0  0  0  0  0  0  0  0  0  0  0  0
   35.3658   14.5264    5.4271 O   0  0  0  0  0  0  0  0  0  0  0  0
  1  2  3  0
  2  3  1  0
  3  4  1  0
  4  5  2  0
  4  6  1  0
  6  7  1  0
  7  8  2  0
  8  9  1  0
  9 10  2  0
 10 11  1  0
 11 12  2  0
 12 13  1  0
 13 14  1  0
 14 15  2  0
 14 16  1  0
 16 17  1  0
 12  7  1  0
M  END
>  <original ID>  (112) 
None

>  <RMSD>  (112) 
1.857152

>  <submitter_name>  (112) 
None

>  <original SMILES>  (112) 
N#CCC(=O)Nc1ccncc1NC(=O)CO

>  <ref_pdb>  (112) 
Ax0310a

>  <method>  (112) 
None

>  <ddG>  (112) 
-4.786357

>  <submitter_email>  (112) 
None

>  <ref_url>  (112) 
None

>  <ref_mols>  (112) 
Ax0732a,Ax0310a

>  <tags>  (112) 
['base']

>  <generation_date>  (112) 
None

$$$$
N#CCC(=O)Nc1cc(F)ccc1NC(=O)CO
     RDKit          3D

 18 18  0  0  0  0  0  0  0  0999 V2000
   29.5822   16.3176    5.4183 N   0  0  0  0  0  0  0  0  0  0  0  0
   30.3304   15.5300    5.8310 C   0  0  0  0  0  0  0  0  0  0  0  0
   31.3365   14.6360    6.3874 C   0  0  0  0  0  0  0  0  0  0  0  0
   31.2039   13.1921    5.9674 C   0  0  0  0  0  0  0  0  0  0  0  0
   30.6212   12.8001    4.9649 O   0  0  0  0  0  0  0  0  0  0  0  0
   31.8307   12.3628    6.8846 N   0  0  0  0  0  0  0  0  0  0  0  0
   32.3611   11.1285    6.4955 C   0  0  0  0  0  0  0  0  0  0  0  0
   31.5074   10.0348    6.4031 C   0  0  0  0  0  0  0  0  0  0  0  0
   32.0296    8.7957    6.0934 C   0  0  0  0  0  0  0  0  0  0  0  0
   31.2188    7.7390    6.0114 F   0  0  0  0  0  0  0  0  0  0  0  0
   33.3847    8.6338    5.8360 C   0  0  0  0  0  0  0  0  0  0  0  0
   34.2393    9.7269    5.9343 C   0  0  0  0  0  0  0  0  0  0  0  0
   33.7465   10.9807    6.3077 C   0  0  0  0  0  0  0  0  0  0  0  0
   34.6977   12.0269    6.3941 N   0  0  0  0  0  0  0  0  0  0  0  0
   34.6747   13.1298    7.2225 C   0  0  0  0  0  0  0  0  0  0  0  0
   33.8505   13.3349    8.1108 O   0  0  0  0  0  0  0  0  0  0  0  0
   35.7363   14.1786    6.9242 C   0  0  0  0  0  0  0  0  0  0  0  0
   35.1346   15.4532    6.7639 O   0  0  0  0  0  0  0  0  0  0  0  0
  1  2  3  0
  2  3  1  0
  3  4  1  0
  4  5  2  0
  4  6  1  0
  6  7  1  0
  7  8  2  0
  8  9  1  0
  9 10  1  0
  9 11  2  0
 11 12  1  0
 12 13  2  0
 13 14  1  0
 14 15  1  0
 15 16  2  0
 15 17  1  0
 17 18  1  0
 13  7  1  0
M  END
>  <original ID>  (113) 
None

>  <RMSD>  (113) 
2.007156

>  <submitter_name>  (113) 
None

>  <original SMILES>  (113) 
N#CCC(=O)Nc1cc(F)ccc1NC(=O)CO

>  <ref_pdb>  (113) 
Ax0310a

>  <method>  (113) 
None

>  <ddG>  (113) 
-15.34491

>  <submitter_email>  (113) 
None

>  <ref_url>  (113) 
None

>  <ref_mols>  (113) 
Ax0732a,Ax0310a

>  <tags>  (113) 
['base']

>  <generation_date>  (113) 
None

$$$$
